<?xml version="1.0" encoding="UTF-8"?>

<!-- generated on 11/20/20 16:39:05 by Eclipse SUMO duarouter Version 1.7.0
<configuration xmlns:xsi="http://www.w3.org/2001/XMLSchema-instance" xsi:noNamespaceSchemaLocation="http://sumo.dlr.de/xsd/duarouterConfiguration.xsd">

    <input>
        <net-file value="D:\nxshen\github\sumo-learning\2020-11-20-16-36-15\osm.net.xml"/>
        <route-files value="D:\nxshen\github\sumo-learning\2020-11-20-16-36-15\osm.passenger.trips.xml"/>
    </input>

    <output>
        <output-file value="D:\nxshen\github\sumo-learning\2020-11-20-16-36-15\osm.passenger.trips.xml.tmp"/>
        <write-trips value="true"/>
    </output>

    <time>
        <begin value="0"/>
        <end value="3600"/>
    </time>

    <report>
        <no-warnings value="true"/>
        <ignore-errors value="true"/>
        <no-step-log value="true"/>
    </report>

</configuration>
-->

<routes xmlns:xsi="http://www.w3.org/2001/XMLSchema-instance" xsi:noNamespaceSchemaLocation="http://sumo.dlr.de/xsd/routes_file.xsd">
    <vType id="veh_passenger" vClass="passenger"/>
    <trip id="veh0" type="veh_passenger" depart="0.00" departLane="best" from="30721660#4" to="-131505631#0"/>
    <trip id="veh1" type="veh_passenger" depart="5.04" departLane="best" from="-82658674#4" to="-751595928#1"/>
    <trip id="veh2" type="veh_passenger" depart="10.07" departLane="best" from="42103020#2" to="340498982#4"/>
    <trip id="veh3" type="veh_passenger" depart="15.11" departLane="best" from="606078066#0" to="-234463931#4"/>
    <trip id="veh4" type="veh_passenger" depart="20.15" departLane="best" departSpeed="max" from="187111590#0" to="-136571494#2"/>
    <trip id="veh5" type="veh_passenger" depart="25.18" departLane="best" departSpeed="max" from="-4611706#1" to="24241797#3"/>
    <trip id="veh6" type="veh_passenger" depart="30.22" departLane="best" from="-156364570#0" to="-4612974#0"/>
    <trip id="veh7" type="veh_passenger" depart="35.26" departLane="best" from="309479676" to="24913519#1"/>
    <trip id="veh10" type="veh_passenger" depart="50.36" departLane="best" departSpeed="max" from="4612966#0" to="35269774#0"/>
    <trip id="veh11" type="veh_passenger" depart="55.40" departLane="best" from="128396190#4" to="-43156728#0"/>
    <trip id="veh12" type="veh_passenger" depart="60.44" departLane="best" from="82659290#0" to="169195795#4"/>
    <trip id="veh13" type="veh_passenger" depart="65.47" departLane="best" from="-23121445#5" to="-24242882#2"/>
    <trip id="veh14" type="veh_passenger" depart="70.51" departLane="best" departSpeed="max" from="4612966#0" to="437325054#0"/>
    <trip id="veh15" type="veh_passenger" depart="75.55" departLane="best" departSpeed="max" from="243854725#0" to="830728708#3"/>
    <trip id="veh16" type="veh_passenger" depart="80.58" departLane="best" from="168940071#0" to="24992424#3"/>
    <trip id="veh17" type="veh_passenger" depart="85.62" departLane="best" from="465376243#1" to="309147331#0"/>
    <trip id="veh18" type="veh_passenger" depart="90.66" departLane="best" from="534588621#1" to="292429062#1"/>
    <trip id="veh19" type="veh_passenger" depart="95.69" departLane="best" from="340498982#4" to="-168937986#5"/>
    <trip id="veh20" type="veh_passenger" depart="100.73" departLane="best" departSpeed="max" from="-4613293" to="139877314#1"/>
    <trip id="veh21" type="veh_passenger" depart="105.77" departLane="best" from="-195397561#6" to="-82658674#2"/>
    <trip id="veh22" type="veh_passenger" depart="110.80" departLane="best" from="-23809670#1" to="122820534#1"/>
    <trip id="veh23" type="veh_passenger" depart="115.84" departLane="best" from="30720544#1" to="176043807#1"/>
    <trip id="veh24" type="veh_passenger" depart="120.87" departLane="best" from="15971197#0" to="-534588621#0"/>
    <trip id="veh25" type="veh_passenger" depart="125.91" departLane="best" from="-743631784" to="82639450"/>
    <trip id="veh26" type="veh_passenger" depart="130.95" departLane="best" from="309155392" to="30721660#2"/>
    <trip id="veh27" type="veh_passenger" depart="135.98" departLane="best" from="-339201177#4" to="437325054#0"/>
    <trip id="veh28" type="veh_passenger" depart="141.02" departLane="best" departSpeed="max" from="-326116285#2" to="188044903#0"/>
    <trip id="veh29" type="veh_passenger" depart="146.06" departLane="best" departSpeed="max" from="24914141#0" to="344594961"/>
    <trip id="veh30" type="veh_passenger" depart="151.09" departLane="best" from="4773465#3" to="4611706#1"/>
    <trip id="veh31" type="veh_passenger" depart="156.13" departLane="best" departSpeed="max" from="-4613293" to="-137630045"/>
    <trip id="veh32" type="veh_passenger" depart="161.17" departLane="best" from="114667396#0" to="112128418#3"/>
    <trip id="veh33" type="veh_passenger" depart="166.20" departLane="best" departSpeed="max" from="-4610607" to="82639450"/>
    <trip id="veh34" type="veh_passenger" depart="171.24" departLane="best" from="54698846#1" to="168937986#5"/>
    <trip id="veh35" type="veh_passenger" depart="176.28" departLane="best" from="310176513#3" to="19002357#1"/>
    <trip id="veh37" type="veh_passenger" depart="186.35" departLane="best" from="-66071379#0" to="100405009#2"/>
    <trip id="veh38" type="veh_passenger" depart="191.39" departLane="best" departSpeed="max" from="24993933#0" to="61584187#3"/>
    <trip id="veh39" type="veh_passenger" depart="196.42" departLane="best" from="84960597#1" to="24242892#3"/>
    <trip id="veh40" type="veh_passenger" depart="201.46" departLane="best" from="-23121445#3" to="-168940071#1"/>
    <trip id="veh41" type="veh_passenger" depart="206.49" departLane="best" from="-24242882#0" to="310176513#4"/>
    <trip id="veh42" type="veh_passenger" depart="211.53" departLane="best" from="4611696#4" to="195401006"/>
    <trip id="veh43" type="veh_passenger" depart="216.57" departLane="best" from="-19002363#2" to="188044903#0"/>
    <trip id="veh44" type="veh_passenger" depart="221.60" departLane="best" departSpeed="max" from="84960597#0" to="24913267#0"/>
    <trip id="veh46" type="veh_passenger" depart="231.68" departLane="best" from="31313667#2" to="24913304#2"/>
    <trip id="veh47" type="veh_passenger" depart="236.71" departLane="best" from="-743631784" to="312357351#1"/>
    <trip id="veh48" type="veh_passenger" depart="241.75" departLane="best" from="-24242882#3" to="19801548#2"/>
    <trip id="veh49" type="veh_passenger" depart="246.79" departLane="best" from="195401013#2" to="82652397#0"/>
    <trip id="veh50" type="veh_passenger" depart="251.82" departLane="best" from="54698846#1" to="112128418#3"/>
    <trip id="veh51" type="veh_passenger" depart="256.86" departLane="best" departSpeed="max" from="236092221#0" to="-4610472#0"/>
    <trip id="veh54" type="veh_passenger" depart="271.97" departLane="best" from="292429063#1" to="-370359204#0"/>
    <trip id="veh55" type="veh_passenger" depart="277.00" departLane="best" departSpeed="max" from="454285423#0" to="24913304#2"/>
    <trip id="veh56" type="veh_passenger" depart="282.04" departLane="best" from="4610362#8" to="24913267#3"/>
    <trip id="veh57" type="veh_passenger" depart="287.08" departLane="best" from="-136571494#3" to="756306892"/>
    <trip id="veh58" type="veh_passenger" depart="292.11" departLane="best" from="55741054" to="490365295#0"/>
    <trip id="veh59" type="veh_passenger" depart="297.15" departLane="best" from="111833186#2" to="-176043807#0"/>
    <trip id="veh60" type="veh_passenger" depart="302.19" departLane="best" from="54781811#1" to="82649618"/>
    <trip id="veh62" type="veh_passenger" depart="312.26" departLane="best" from="-195104956#0" to="4610476#3"/>
    <trip id="veh63" type="veh_passenger" depart="317.30" departLane="best" from="454285423#3" to="-310176513#1"/>
    <trip id="veh64" type="veh_passenger" depart="322.33" departLane="best" from="202156995#0" to="24990040"/>
    <trip id="veh65" type="veh_passenger" depart="327.37" departLane="best" from="-66071379#0" to="60333309#0"/>
    <trip id="veh66" type="veh_passenger" depart="332.41" departLane="best" departSpeed="max" from="187111590#0" to="-55741054"/>
    <trip id="veh67" type="veh_passenger" depart="337.44" departLane="best" from="24540242#1" to="437325054#0"/>
    <trip id="veh68" type="veh_passenger" depart="342.48" departLane="best" departSpeed="max" from="-4570580#1" to="164039095#1"/>
    <trip id="veh69" type="veh_passenger" depart="347.52" departLane="best" departSpeed="max" from="84960597#0" to="316092515"/>
    <trip id="veh70" type="veh_passenger" depart="352.55" departLane="best" from="19002363#2" to="24243052#4"/>
    <trip id="veh71" type="veh_passenger" depart="357.59" departLane="best" from="-243854725#3" to="-751595930"/>
    <trip id="veh74" type="veh_passenger" depart="372.70" departLane="best" departSpeed="max" from="-195104960#2" to="310177222#2"/>
    <trip id="veh75" type="veh_passenger" depart="377.73" departLane="best" departSpeed="max" from="-4613293" to="66071379#1"/>
    <trip id="veh76" type="veh_passenger" depart="382.77" departLane="best" from="523630409" to="-195397561#0"/>
    <trip id="veh77" type="veh_passenger" depart="387.81" departLane="best" departSpeed="max" from="-4790825#2" to="339201177#5"/>
    <trip id="veh78" type="veh_passenger" depart="392.84" departLane="best" from="-4611696#3" to="-310176513#7"/>
    <trip id="veh79" type="veh_passenger" depart="397.88" departLane="best" departSpeed="max" from="755551646#0" to="289966281"/>
    <trip id="veh80" type="veh_passenger" depart="402.92" departLane="best" from="202156994#0" to="4612961#1"/>
    <trip id="veh81" type="veh_passenger" depart="407.95" departLane="best" from="4612966#1" to="-4612968#1"/>
    <trip id="veh82" type="veh_passenger" depart="412.99" departLane="best" from="-234463931#4" to="195407521"/>
    <trip id="veh83" type="veh_passenger" depart="418.03" departLane="best" departSpeed="max" from="187111590#0" to="234463931#1"/>
    <trip id="veh84" type="veh_passenger" depart="423.06" departLane="best" from="389705415#1" to="340498976#7"/>
    <trip id="veh85" type="veh_passenger" depart="428.10" departLane="best" from="83517336#3" to="-24242892#2"/>
    <trip id="veh86" type="veh_passenger" depart="433.13" departLane="best" from="534588621#1" to="100405009#3"/>
    <trip id="veh87" type="veh_passenger" depart="438.17" departLane="best" departSpeed="max" from="-437325054#2" to="202157002#1"/>
    <trip id="veh88" type="veh_passenger" depart="443.21" departLane="best" departSpeed="max" from="187111590#0" to="128396190#1"/>
    <trip id="veh90" type="veh_passenger" depart="453.28" departLane="best" from="194069450#0" to="54698846#2"/>
    <trip id="veh91" type="veh_passenger" depart="458.32" departLane="best" from="24913519#2" to="-168942727#2"/>
    <trip id="veh93" type="veh_passenger" depart="468.39" departLane="best" from="830728708#3" to="751595929#1"/>
    <trip id="veh94" type="veh_passenger" depart="473.43" departLane="best" departSpeed="max" from="4790799" to="-437325051#0"/>
    <trip id="veh95" type="veh_passenger" depart="478.46" departLane="best" from="22972454" to="-6227658#2"/>
    <trip id="veh96" type="veh_passenger" depart="483.50" departLane="best" from="169195795#8" to="-188914559"/>
    <trip id="veh97" type="veh_passenger" depart="488.54" departLane="best" from="168940071#1" to="83517336#4"/>
    <trip id="veh98" type="veh_passenger" depart="493.57" departLane="best" from="-66071379#0" to="4612961#1"/>
    <trip id="veh99" type="veh_passenger" depart="498.61" departLane="best" from="82659290#0" to="844076875#1"/>
    <trip id="veh100" type="veh_passenger" depart="503.65" departLane="best" departSpeed="max" from="24914141#0" to="43231842#1"/>
    <trip id="veh101" type="veh_passenger" depart="508.68" departLane="best" from="-31313667#1" to="156364556#1"/>
    <trip id="veh102" type="veh_passenger" depart="513.72" departLane="best" from="830728708#2" to="292429063#0"/>
    <trip id="veh103" type="veh_passenger" depart="518.75" departLane="best" from="246052428" to="4610351#0"/>
    <trip id="veh105" type="veh_passenger" depart="528.83" departLane="best" departSpeed="max" from="236092221#0" to="54048862#3"/>
    <trip id="veh106" type="veh_passenger" depart="533.86" departLane="best" from="-326116285#1" to="82652397#0"/>
    <trip id="veh107" type="veh_passenger" depart="538.90" departLane="best" from="-195411605#0" to="-4612966#0"/>
    <trip id="veh108" type="veh_passenger" depart="543.94" departLane="best" from="289830064" to="340498982#2"/>
    <trip id="veh109" type="veh_passenger" depart="548.97" departLane="best" departSpeed="max" from="-4790825#2" to="-25302636#1"/>
    <trip id="veh110" type="veh_passenger" depart="554.01" departLane="best" from="606078065" to="100405009#2"/>
    <trip id="veh111" type="veh_passenger" depart="559.05" departLane="best" from="24242882#3" to="819027709#0"/>
    <trip id="veh113" type="veh_passenger" depart="569.12" departLane="best" departSpeed="max" from="-47935842" to="19002357#1"/>
    <trip id="veh114" type="veh_passenger" depart="574.16" departLane="best" from="312514710#0" to="156364570#1"/>
    <trip id="veh115" type="veh_passenger" depart="579.19" departLane="best" from="11483007#0" to="4610362#4"/>
    <trip id="veh116" type="veh_passenger" depart="584.23" departLane="best" departSpeed="max" from="-195104960#2" to="23013165#1"/>
    <trip id="veh117" type="veh_passenger" depart="589.27" departLane="best" from="874528353#0" to="844076875#1"/>
    <trip id="veh118" type="veh_passenger" depart="594.30" departLane="best" departSpeed="max" from="-195104960#2" to="-6227658#2"/>
    <trip id="veh119" type="veh_passenger" depart="599.34" departLane="best" from="-66071379#0" to="819027709#0"/>
    <trip id="veh120" type="veh_passenger" depart="604.37" departLane="best" from="158023913#4" to="-43159545"/>
    <trip id="veh121" type="veh_passenger" depart="609.41" departLane="best" departSpeed="max" from="4773029#0" to="370359204#2"/>
    <trip id="veh122" type="veh_passenger" depart="614.45" departLane="best" from="301167584#0" to="840860363#0"/>
    <trip id="veh123" type="veh_passenger" depart="619.48" departLane="best" from="310176513#1" to="-111251382#3"/>
    <trip id="veh124" type="veh_passenger" depart="624.52" departLane="best" from="-28016312#0" to="-24993933#0"/>
    <trip id="veh125" type="veh_passenger" depart="629.56" departLane="best" departSpeed="max" from="-23813206#2" to="24992424#3"/>
    <trip id="veh126" type="veh_passenger" depart="634.59" departLane="best" from="-82658671#0" to="305153174"/>
    <trip id="veh127" type="veh_passenger" depart="639.63" departLane="best" from="35578576#1" to="-4773029#0"/>
    <trip id="veh128" type="veh_passenger" depart="644.67" departLane="best" from="30720544#0" to="112128418#3"/>
    <trip id="veh129" type="veh_passenger" depart="649.70" departLane="best" from="23013165#2" to="66071379#1"/>
    <trip id="veh130" type="veh_passenger" depart="654.74" departLane="best" departSpeed="max" from="4790799" to="-23813206#0"/>
    <trip id="veh131" type="veh_passenger" depart="659.78" departLane="best" departSpeed="max" from="187111590#0" to="120675240#3"/>
    <trip id="veh133" type="veh_passenger" depart="669.85" departLane="best" from="30721660#1" to="112128418#2"/>
    <trip id="veh134" type="veh_passenger" depart="674.88" departLane="best" from="188046016#0" to="-111833185#0"/>
    <trip id="veh135" type="veh_passenger" depart="679.92" departLane="best" from="-195105328#1" to="606078066#0"/>
    <trip id="veh138" type="veh_passenger" depart="695.03" departLane="best" from="-541295974" to="-24243107#2"/>
    <trip id="veh139" type="veh_passenger" depart="700.07" departLane="best" from="4610375" to="606078066#0"/>
    <trip id="veh140" type="veh_passenger" depart="705.10" departLane="best" from="171826984#2" to="309155392"/>
    <trip id="veh141" type="veh_passenger" depart="710.14" departLane="best" from="-31313667#0" to="77348147"/>
    <trip id="veh142" type="veh_passenger" depart="715.18" departLane="best" from="54048862#1" to="830728708#5"/>
    <trip id="veh143" type="veh_passenger" depart="720.21" departLane="best" from="-156364553#0" to="4402037#1"/>
    <trip id="veh144" type="veh_passenger" depart="725.25" departLane="best" from="120675240#3" to="81112790#1"/>
    <trip id="veh146" type="veh_passenger" depart="735.32" departLane="best" from="4612968#3" to="112128418#3"/>
    <trip id="veh147" type="veh_passenger" depart="740.36" departLane="best" from="4611693#0" to="-243854725#4"/>
    <trip id="veh149" type="veh_passenger" depart="750.43" departLane="best" from="195407521" to="15977422#0"/>
    <trip id="veh150" type="veh_passenger" depart="755.47" departLane="best" from="4611706#0" to="-755551646#0"/>
    <trip id="veh151" type="veh_passenger" depart="760.50" departLane="best" from="-155186522" to="-4612969#0"/>
    <trip id="veh152" type="veh_passenger" depart="765.54" departLane="best" departSpeed="max" from="11549897" to="560370523"/>
    <trip id="veh153" type="veh_passenger" depart="770.58" departLane="best" from="830728708#1" to="128396190#2"/>
    <trip id="veh154" type="veh_passenger" depart="775.61" departLane="best" from="30721662#1" to="19002363#4"/>
    <trip id="veh155" type="veh_passenger" depart="780.65" departLane="best" from="83517332#2" to="24913304#2"/>
    <trip id="veh156" type="veh_passenger" depart="785.69" departLane="best" from="755551646#1" to="-24993933#0"/>
    <trip id="veh157" type="veh_passenger" depart="790.72" departLane="best" from="830728708#4" to="-4610375"/>
    <trip id="veh158" type="veh_passenger" depart="795.76" departLane="best" departSpeed="max" from="830728708#0" to="112128418#3"/>
    <trip id="veh159" type="veh_passenger" depart="800.80" departLane="best" from="-24241797#3" to="19801548#2"/>
    <trip id="veh160" type="veh_passenger" depart="805.83" departLane="best" from="380240681" to="168937986#4"/>
    <trip id="veh161" type="veh_passenger" depart="810.87" departLane="best" from="292429062#2" to="24242892#5"/>
    <trip id="veh162" type="veh_passenger" depart="815.91" departLane="best" from="168943640#0" to="292429062#0"/>
    <trip id="veh165" type="veh_passenger" depart="831.01" departLane="best" from="243854725#4" to="43231842#2"/>
    <trip id="veh166" type="veh_passenger" depart="836.05" departLane="best" departSpeed="max" from="43159545" to="340498976#1"/>
    <trip id="veh167" type="veh_passenger" depart="841.09" departLane="best" from="156364556#1" to="-195397541#1"/>
    <trip id="veh168" type="veh_passenger" depart="846.12" departLane="best" from="310177222#3" to="169195795#0"/>
    <trip id="veh169" type="veh_passenger" depart="851.16" departLane="best" from="112128419#2" to="54048862#0"/>
    <trip id="veh171" type="veh_passenger" depart="861.23" departLane="best" from="169195795#9" to="156364553#1"/>
    <trip id="veh172" type="veh_passenger" depart="866.27" departLane="best" from="-24993933#1" to="195397561#5"/>
    <trip id="veh173" type="veh_passenger" depart="871.31" departLane="best" from="756306892" to="340498982#5"/>
    <trip id="veh174" type="veh_passenger" depart="876.34" departLane="best" from="61584187#1" to="30826268#1"/>
    <trip id="veh175" type="veh_passenger" depart="881.38" departLane="best" from="111251382#3" to="24914992#1"/>
    <trip id="veh177" type="veh_passenger" depart="891.45" departLane="best" from="188046016#0" to="292429063#1"/>
    <trip id="veh178" type="veh_passenger" depart="896.49" departLane="best" from="310176513#2" to="23121445#5"/>
    <trip id="veh179" type="veh_passenger" depart="901.53" departLane="best" from="190447768#1" to="-6227658#2"/>
    <trip id="veh180" type="veh_passenger" depart="906.56" departLane="best" from="202156994#0" to="6227658#3"/>
    <trip id="veh181" type="veh_passenger" depart="911.60" departLane="best" from="4611726" to="-4402014#3"/>
    <trip id="veh182" type="veh_passenger" depart="916.63" departLane="best" departSpeed="max" from="-202156991#2" to="24243052#1"/>
    <trip id="veh183" type="veh_passenger" depart="921.67" departLane="best" from="4612973#1" to="4610362#3"/>
    <trip id="veh184" type="veh_passenger" depart="926.71" departLane="best" from="312514710#0" to="-751595930"/>
    <trip id="veh185" type="veh_passenger" depart="931.74" departLane="best" from="-454285423#3" to="-131505631#0"/>
    <trip id="veh186" type="veh_passenger" depart="936.78" departLane="best" departSpeed="max" from="-51167934#4" to="23809670#1"/>
    <trip id="veh187" type="veh_passenger" depart="941.82" departLane="best" departSpeed="max" from="4790799" to="-195397561#6"/>
    <trip id="veh188" type="veh_passenger" depart="946.85" departLane="best" from="176043807#0" to="310176513#9"/>
    <trip id="veh189" type="veh_passenger" depart="951.89" departLane="best" from="-4402014#3" to="35269774#0"/>
    <trip id="veh190" type="veh_passenger" depart="956.93" departLane="best" from="23121445#5" to="100405009#1"/>
    <trip id="veh192" type="veh_passenger" depart="967.00" departLane="best" from="437325047#5" to="4611694#0"/>
    <trip id="veh193" type="veh_passenger" depart="972.04" departLane="best" from="-35578576#2" to="82652397#0"/>
    <trip id="veh194" type="veh_passenger" depart="977.07" departLane="best" from="23852053#0" to="-168942727#1"/>
    <trip id="veh195" type="veh_passenger" depart="982.11" departLane="best" from="-534588621#1" to="54048862#0"/>
    <trip id="veh196" type="veh_passenger" depart="987.14" departLane="best" from="195401013#3" to="4613293"/>
    <trip id="veh197" type="veh_passenger" depart="992.18" departLane="best" from="606078066#0" to="30721662#0"/>
    <trip id="veh198" type="veh_passenger" depart="997.22" departLane="best" from="370359204#0" to="24241797#0"/>
    <trip id="veh199" type="veh_passenger" depart="1002.25" departLane="best" from="465376254" to="24914992#1"/>
    <trip id="veh200" type="veh_passenger" depart="1007.29" departLane="best" from="61583423#0" to="4570580#1"/>
    <trip id="veh201" type="veh_passenger" depart="1012.33" departLane="best" from="202156995#0" to="112128418#1"/>
    <trip id="veh202" type="veh_passenger" depart="1017.36" departLane="best" departSpeed="max" from="-51167934#4" to="312357351#0"/>
    <trip id="veh203" type="veh_passenger" depart="1022.40" departLane="best" from="454285423#3" to="24243107#1"/>
    <trip id="veh204" type="veh_passenger" depart="1027.44" departLane="best" from="305093247#2" to="11483007#0"/>
    <trip id="veh205" type="veh_passenger" depart="1032.47" departLane="best" from="-195397561#0" to="136571494#4"/>
    <trip id="veh206" type="veh_passenger" depart="1037.51" departLane="best" from="-751595930" to="168942727#2"/>
    <trip id="veh207" type="veh_passenger" depart="1042.55" departLane="best" from="24540242#1" to="-31313667#2"/>
    <trip id="veh208" type="veh_passenger" depart="1047.58" departLane="best" from="-461526153" to="34848160#1"/>
    <trip id="veh209" type="veh_passenger" depart="1052.62" departLane="best" from="340498982#9" to="-194962375#0"/>
    <trip id="veh210" type="veh_passenger" depart="1057.66" departLane="best" from="171826984#2" to="24913304#2"/>
    <trip id="veh211" type="veh_passenger" depart="1062.69" departLane="best" departSpeed="max" from="187111590#0" to="-4773029#2"/>
    <trip id="veh212" type="veh_passenger" depart="1067.73" departLane="best" departSpeed="max" from="187111590#0" to="66071379#1"/>
    <trip id="veh213" type="veh_passenger" depart="1072.76" departLane="best" departSpeed="max" from="24993933#0" to="35269774#0"/>
    <trip id="veh216" type="veh_passenger" depart="1087.87" departLane="best" from="139877314#1" to="4610362#6"/>
    <trip id="veh217" type="veh_passenger" depart="1092.91" departLane="best" from="490365295#1" to="82652397#0"/>
    <trip id="veh218" type="veh_passenger" depart="1097.95" departLane="best" departSpeed="max" from="187111590#0" to="4610351#0"/>
    <trip id="veh219" type="veh_passenger" depart="1102.98" departLane="best" from="24913304#1" to="305093328#1"/>
    <trip id="veh220" type="veh_passenger" depart="1108.02" departLane="best" from="-4612966#1" to="-66071379#0"/>
    <trip id="veh221" type="veh_passenger" depart="1113.06" departLane="best" from="188914559" to="-136571494#1"/>
    <trip id="veh222" type="veh_passenger" depart="1118.09" departLane="best" departSpeed="max" from="122820534#0" to="340498982#9"/>
    <trip id="veh223" type="veh_passenger" depart="1123.13" departLane="best" from="169999355#0" to="-437325047#3"/>
    <trip id="veh224" type="veh_passenger" depart="1128.17" departLane="best" from="19801548#2" to="-310176513#0"/>
    <trip id="veh225" type="veh_passenger" depart="1133.20" departLane="best" from="301733776" to="-132600840#0"/>
    <trip id="veh226" type="veh_passenger" depart="1138.24" departLane="best" from="-156364570#1" to="312357351#1"/>
    <trip id="veh227" type="veh_passenger" depart="1143.27" departLane="best" from="-28251222#0" to="23121445#0"/>
    <trip id="veh228" type="veh_passenger" depart="1148.31" departLane="best" departSpeed="max" from="-168943640#3" to="188044903#0"/>
    <trip id="veh229" type="veh_passenger" depart="1153.35" departLane="best" departSpeed="max" from="-4610607" to="168943640#3"/>
    <trip id="veh230" type="veh_passenger" depart="1158.38" departLane="best" departSpeed="max" from="454285423#0" to="188044903#0"/>
    <trip id="veh231" type="veh_passenger" depart="1163.42" departLane="best" from="437325051#0" to="490365295#0"/>
    <trip id="veh232" type="veh_passenger" depart="1168.46" departLane="best" departSpeed="max" from="-560370523" to="-23121445#4"/>
    <trip id="veh233" type="veh_passenger" depart="1173.49" departLane="best" from="-136571494#3" to="24913304#2"/>
    <trip id="veh234" type="veh_passenger" depart="1178.53" departLane="best" from="309479676" to="4610362#7"/>
    <trip id="veh235" type="veh_passenger" depart="1183.57" departLane="best" from="82649618" to="-4612981#1"/>
    <trip id="veh236" type="veh_passenger" depart="1188.60" departLane="best" from="-137630045" to="-370359204#0"/>
    <trip id="veh237" type="veh_passenger" depart="1193.64" departLane="best" from="-24992424#5" to="339201217#1"/>
    <trip id="veh238" type="veh_passenger" depart="1198.68" departLane="best" from="24990040" to="-66071370"/>
    <trip id="veh239" type="veh_passenger" depart="1203.71" departLane="best" from="340498976#2" to="4610607"/>
    <trip id="veh240" type="veh_passenger" depart="1208.75" departLane="best" from="-328920970" to="30720544#1"/>
    <trip id="veh241" type="veh_passenger" depart="1213.79" departLane="best" from="-24241797#2" to="-131505631#1"/>
    <trip id="veh242" type="veh_passenger" depart="1218.82" departLane="best" from="112128419#1" to="340498982#5"/>
    <trip id="veh243" type="veh_passenger" depart="1223.86" departLane="best" from="82659290#0" to="19002363#1"/>
    <trip id="veh244" type="veh_passenger" depart="1228.89" departLane="best" from="34848160#2" to="-202817674#2"/>
    <trip id="veh245" type="veh_passenger" depart="1233.93" departLane="best" from="326116285#0" to="310176513#3"/>
    <trip id="veh246" type="veh_passenger" depart="1238.97" departLane="best" from="-23809670#3" to="4611696#5"/>
    <trip id="veh247" type="veh_passenger" depart="1244.00" departLane="best" from="-243854725#3" to="83517336#2"/>
    <trip id="veh248" type="veh_passenger" depart="1249.04" departLane="best" from="4610472#2" to="169195795#9"/>
    <trip id="veh249" type="veh_passenger" depart="1254.08" departLane="best" from="23755950#0" to="169195795#7"/>
    <trip id="veh250" type="veh_passenger" depart="1259.11" departLane="best" departSpeed="max" from="4790799" to="4773465#3"/>
    <trip id="veh251" type="veh_passenger" depart="1264.15" departLane="best" departSpeed="max" from="-23813206#2" to="82652397#0"/>
    <trip id="veh252" type="veh_passenger" depart="1269.19" departLane="best" from="30720544#1" to="47935842"/>
    <trip id="veh253" type="veh_passenger" depart="1274.22" departLane="best" from="340498988#0" to="19801548#2"/>
    <trip id="veh254" type="veh_passenger" depart="1279.26" departLane="best" from="415280722" to="82658674#1"/>
    <trip id="veh255" type="veh_passenger" depart="1284.30" departLane="best" from="-751595930" to="46140376#1"/>
    <trip id="veh256" type="veh_passenger" depart="1289.33" departLane="best" from="243854725#4" to="23813206#2"/>
    <trip id="veh257" type="veh_passenger" depart="1294.37" departLane="best" from="188914559" to="437325054#0"/>
    <trip id="veh258" type="veh_passenger" depart="1299.40" departLane="best" from="-751595928#1" to="54048862#3"/>
    <trip id="veh259" type="veh_passenger" depart="1304.44" departLane="best" from="465376255#2" to="-234463931#4"/>
    <trip id="veh260" type="veh_passenger" depart="1309.48" departLane="best" from="60333309#1" to="100405009#1"/>
    <trip id="veh261" type="veh_passenger" depart="1314.51" departLane="best" departSpeed="max" from="196850609#0" to="30721660#3"/>
    <trip id="veh262" type="veh_passenger" depart="1319.55" departLane="best" from="168940071#1" to="-136571494#1"/>
    <trip id="veh263" type="veh_passenger" depart="1324.59" departLane="best" departSpeed="max" from="4790799" to="-4610524"/>
    <trip id="veh264" type="veh_passenger" depart="1329.62" departLane="best" departSpeed="max" from="-4610607" to="4612981#1"/>
    <trip id="veh265" type="veh_passenger" depart="1334.66" departLane="best" from="340498976#7" to="120675240#3"/>
    <trip id="veh266" type="veh_passenger" depart="1339.70" departLane="best" from="-120675240#3" to="82649618"/>
    <trip id="veh267" type="veh_passenger" depart="1344.73" departLane="best" departSpeed="max" from="-202156991#2" to="43231842#3"/>
    <trip id="veh268" type="veh_passenger" depart="1349.77" departLane="best" from="23013165#2" to="4610472#1"/>
    <trip id="veh269" type="veh_passenger" depart="1354.81" departLane="best" from="326116285#0" to="31313667#1"/>