<?xml version="1.0" encoding="UTF-8"?>

<!-- generated on 11/20/20 16:39:01 by Eclipse SUMO polyconvert Version 1.7.0
<configuration xmlns:xsi="http://www.w3.org/2001/XMLSchema-instance" xsi:noNamespaceSchemaLocation="http://sumo.dlr.de/xsd/polyconvertConfiguration.xsd">

    <input>
        <net-file value="osm.net.xml"/>
        <osm-files value="osm_bbox.osm.xml"/>
        <osm.keep-full-type value="true"/>
        <type-file value="C:\Program%20Files%20(x86)\Eclipse\Sumo\data\typemap\osmPolyconvert.typ.xml"/>
    </input>

    <output>
        <output-file value="osm.poly.xml"/>
    </output>

    <processing>
        <poi-layer-offset value="5"/>
    </processing>

    <report>
        <verbose value="true"/>
    </report>

</configuration>
-->

<additional xmlns:xsi="http://www.w3.org/2001/XMLSchema-instance" xsi:noNamespaceSchemaLocation="http://sumo.dlr.de/xsd/additional_file.xsd">
    <location netOffset="-389926.09,-5819108.12" convBoundary="-6493.06,-3727.27,5357.62,4151.07" origBoundary="13.282814,52.477280,13.456602,52.548335" projParameter="+proj=utm +zone=33 +ellps=WGS84 +datum=WGS84 +units=m +no_defs"/>

    <poly id="100575040" type="leisure.park" color="207,245,201" fill="1" layer="-2.00" shape="1417.576765,1513.718671 1416.683399,1513.527070 1410.678861,1512.091319 1404.727356,1510.598760 1411.764440,1483.936578 1419.827805,1455.193027 1396.867144,1449.404317 1398.746242,1437.433793 1390.096132,1436.067906 1384.870830,1437.942050 1380.143612,1440.851141 1382.769575,1446.935306 1374.822986,1450.049394 1368.566074,1452.536220 1366.216025,1446.957808 1355.963460,1451.981435 1357.532669,1453.571230 1357.094357,1455.839871 1355.065135,1456.764007 1354.465391,1460.015464 1348.184096,1458.040678 1348.452952,1456.699392 1336.824850,1459.683862 1328.133663,1461.968862 1327.374531,1463.543590 1323.738036,1464.525689 1321.698034,1463.435976 1317.780260,1450.225461 1318.440140,1449.988253 1317.604890,1446.913320 1315.968969,1442.320557 1304.581197,1447.569804 1292.010851,1453.357220 1288.862569,1454.929392 1286.491536,1458.186827 1289.749969,1463.711640 1284.457545,1466.533234 1285.084783,1467.576425 1282.478732,1475.835394 1280.006997,1483.724169 1277.933491,1490.291036 1273.961062,1488.676768 1269.538734,1491.556941 1287.412656,1508.507807 1293.064730,1509.962366 1300.963987,1512.056927 1307.823948,1513.807373 1313.592074,1515.292761 1318.589428,1516.606104 1324.371362,1518.102325 1340.816248,1522.366226 1357.468685,1526.503169 1374.271322,1530.681344 1380.196173,1532.196712 1385.520345,1533.558506 1391.260793,1535.022343 1397.888557,1536.711300 1402.926567,1538.023826 1409.457868,1539.648174 1410.522798,1539.924988 1412.380848,1532.817709 1417.576765,1513.718671"/>
    <poly id="100950874" type="building.commercial" color="255,230,230" fill="1" layer="-1.00" shape="1722.231041,1220.810462 1702.901240,1212.269336 1698.756371,1201.945625 1710.489327,1181.578411 1723.844252,1188.805173 1722.231041,1220.810462"/>
    <poly id="100950876" type="building.commercial" color="255,230,230" fill="1" layer="-1.00" shape="1760.568570,1162.577354 1749.415332,1181.240220 1747.000021,1185.277327 1747.567971,1229.363436 1747.636465,1234.914593 1749.005520,1238.812351 1750.961247,1242.229774 1753.598481,1245.465208 1758.593956,1249.449670 1761.771180,1251.015153 1781.583318,1258.666757 1813.408451,1191.063995 1760.568570,1162.577354"/>
    <poly id="100950877" type="building.commercial" color="255,230,230" fill="1" layer="-1.00" shape="1792.418103,1197.670501 1772.723627,1239.545177 1766.471735,1237.368904 1763.795302,1235.736703 1762.191583,1232.890126 1761.140629,1227.416337 1762.849909,1195.753900 1788.250749,1195.837574 1792.418103,1197.670501"/>
    <poly id="100950878" type="building.commercial" color="255,230,230" fill="1" layer="-1.00" shape="1731.203269,1238.872346 1736.524207,1225.045426 1737.942733,1193.133473 1737.863155,1189.229446 1736.320572,1184.545470 1733.833956,1180.449886 1729.881305,1176.664927 1725.931743,1174.860616 1704.441688,1163.485225 1685.187291,1197.616848 1683.414102,1203.676128 1683.548157,1209.426132 1685.239703,1215.931723 1692.094200,1223.558211 1731.203269,1238.872346"/>
    <poly id="102522991" type="landuse.construction" color="194,194,130" fill="1" layer="-3.00" shape="2116.969429,890.316732 2032.757013,902.878442 2022.823582,903.064200 1997.515040,885.696101 1961.132819,858.691272 1962.776805,850.754405 1995.408222,806.525408 2002.268639,803.959343 2007.000060,803.042632 2013.247762,802.548701 2016.562176,803.554950 2100.190190,860.475283 2106.992982,850.677717 2205.079753,921.268399 2201.908715,925.533331 2229.760825,946.251475 2217.552249,963.946077 2154.884260,916.999594 2116.969429,890.316732"/>
    <poly id="104392614" type="building.yes" color="255,230,230" fill="1" layer="-1.00" shape="520.909631,1261.569862 523.481557,1262.758628 527.073914,1254.644068 548.282262,1265.141595 539.203500,1284.695718 517.361917,1274.713147 515.613051,1273.906567 520.909631,1261.569862"/>
    <poly id="104393529" type="building.yes" color="255,230,230" fill="1" layer="-1.00" shape="616.094003,1414.728335 592.358454,1408.949546 588.262583,1425.810558 586.819516,1431.695991 590.731291,1433.923090 592.463490,1431.558673 593.809599,1425.586388 604.340356,1428.177393 601.601269,1439.544364 607.083098,1443.995298 613.093716,1426.557372 616.094003,1414.728335"/>
    <poly id="104393530" type="building.yes" color="255,230,230" fill="1" layer="-1.00" shape="554.192339,1453.824171 558.190716,1437.466052 564.007920,1439.005109 567.904430,1421.124784 571.946780,1403.997885 558.734433,1400.777002 553.302060,1399.451896 549.771592,1414.275057 549.473575,1415.516898 554.756685,1416.845337 558.585858,1417.805701 561.295748,1418.490652 559.153106,1427.084642 558.860131,1428.248475 558.293288,1430.520075 551.756230,1428.963741 550.009346,1428.546576 541.302554,1426.482401 540.830015,1428.418063 539.922528,1428.204680 539.137650,1428.010810 537.404332,1427.593347 533.491965,1443.849412 537.014851,1444.772099 535.896004,1449.370612 554.192339,1453.824171"/>
    <poly id="104393531" type="building.yes" color="255,230,230" fill="1" layer="-1.00" shape="536.161490,1496.434845 537.827293,1498.689888 532.047228,1503.359290 531.040749,1502.057609 527.263558,1504.935162 494.185306,1462.288371 497.646094,1459.829598 505.029051,1454.601288 507.554501,1457.660537 513.623708,1465.002556 520.478027,1459.808353 518.817429,1457.786880 524.707321,1458.934795 528.411870,1459.786646 571.479712,1469.917676 536.161490,1496.434845"/>
    <poly id="104393532" type="building.yes" color="255,230,230" fill="1" layer="-1.00" shape="603.345326,1454.104909 642.787626,1428.352918 644.162395,1421.534304 616.094003,1414.728335 613.093716,1426.557372 628.350577,1430.155554 607.083098,1443.995298 601.635035,1451.984372 603.345326,1454.104909"/>
    <poly id="104393533" type="building.yes" color="255,230,230" fill="1" layer="-1.00" shape="487.354847,1422.448262 475.764282,1419.514012 472.122471,1435.719566 459.101825,1432.572555 464.176440,1414.276293 456.980846,1412.412121 473.066518,1379.948639 494.550211,1385.176354 491.430620,1399.244813 477.658180,1395.869764 474.226336,1409.934097 489.855423,1413.779460 487.354847,1422.448262"/>
    <poly id="104393534" type="building.yes" color="255,230,230" fill="1" layer="-1.00" shape="592.358454,1408.949546 571.946780,1403.997885 567.904430,1421.124784 573.741642,1422.040255 574.913491,1417.685377 583.315254,1419.767560 580.603096,1431.122814 579.824755,1430.917664 578.634972,1435.684667 570.422617,1433.876450 569.131059,1439.858650 575.040993,1441.295497 573.041616,1449.619213 571.976442,1454.494708 575.115186,1455.236842 576.530570,1450.542687 579.337997,1444.359678 581.836756,1439.852726 584.428048,1436.144902 586.819516,1431.695991 588.262583,1425.810558 592.358454,1408.949546"/>
    <poly id="104786904" type="natural.grassland" color="140,196,107" fill="1" layer="-4.00" shape="1082.527685,859.158627 1087.864925,797.314817 1068.468166,795.654475 1063.124382,857.498461 1082.527685,859.158627"/>
    <poly id="104786906" type="building.yes" color="255,230,230" fill="1" layer="-1.00" shape="1096.719372,963.698627 1160.043615,975.287066 1153.038968,985.379829 1149.351052,990.168842 1144.877803,995.965686 1142.971254,998.445045 1128.872716,997.523480 1117.493173,996.775145 1118.093936,989.606704 1139.601131,991.275910 1140.931583,984.258158 1101.072808,977.533571 1099.555980,978.613321 1097.706913,987.946049 1098.737751,989.124897 1098.536135,990.130871 1097.689699,990.528046 1097.468480,995.228835 1093.981341,995.005984 1090.677384,994.779059 1091.078632,992.678132 1094.937303,973.296929 1096.546148,963.235121 1096.719372,963.698627"/>
    <poly id="104786907" type="building.residential" color="255,230,230" fill="1" layer="-1.00" shape="1125.492308,945.343265 1124.217129,958.201805 1084.527191,950.839313 1087.625836,918.655971 1101.253896,919.777064 1102.449904,906.107961 1115.757631,907.169457 1114.620341,919.513059 1106.802541,918.685504 1105.517831,932.334324 1113.413314,932.993234 1112.952179,938.200103 1112.487519,944.163730 1125.492308,945.343265"/>
    <poly id="104786910" type="building.yes" color="255,230,230" fill="1" layer="-1.00" shape="1203.205663,972.135249 1215.877105,955.573851 1199.781510,942.990193 1200.487433,942.073161 1199.706929,941.467364 1202.781272,937.470966 1203.492447,938.011539 1204.435942,936.788781 1208.392986,939.827686 1209.151705,938.842717 1225.933162,951.744991 1233.192771,942.425608 1243.246549,945.518224 1223.076364,971.637930 1215.588261,981.363004 1203.205663,972.135249"/>
    <poly id="104786915" type="building.yes" color="255,230,230" fill="1" layer="-1.00" shape="1200.718238,965.280281 1187.190559,962.865880 1186.073646,969.111062 1199.576148,971.615041 1200.718238,965.280281"/>
    <poly id="104786916" type="building.yes" color="255,230,230" fill="1" layer="-1.00" shape="1229.011704,897.540630 1224.171520,914.628970 1262.252191,925.633701 1267.053125,911.662011 1264.387959,910.552820 1261.833661,908.628851 1259.131447,906.463361 1255.431664,904.920930 1241.120964,900.876882 1229.011704,897.540630"/>
    <poly id="104991245" type="building.yes" color="255,230,230" fill="1" layer="-1.00" shape="1108.144732,1280.715902 1120.947457,1276.514108 1122.811383,1282.192250 1123.249381,1282.048973 1128.680748,1298.586229 1129.509748,1298.322977 1133.652213,1310.927469 1132.783005,1311.213869 1138.222086,1327.795472 1124.489472,1332.296106 1121.700887,1323.800985 1121.108097,1324.003344 1118.195760,1315.132638 1118.788551,1314.930279 1115.191482,1303.960556 1114.645683,1304.139615 1111.769472,1295.368257 1112.382618,1295.165444 1110.955676,1290.824028 1109.594243,1286.681452 1110.045561,1286.526751 1108.144732,1280.715902"/>
    <poly id="104991246" type="building.yes" color="255,230,230" fill="1" layer="-1.00" shape="1011.309163,1324.667073 1010.026640,1321.023509 1025.246434,1315.643733 1026.540534,1319.198021 1011.309163,1324.667073"/>
    <poly id="105187864" type="building.yes" color="255,230,230" fill="1" layer="-1.00" shape="591.647860,910.500568 586.106193,910.079194 580.720074,909.632093 578.734234,909.465063 576.925291,909.316335 574.266279,909.097592 574.945161,900.903564 575.867902,889.043076 565.970091,888.095966 564.914168,900.070712 564.336357,907.016181 563.808170,913.448666 563.380294,918.599225 563.256826,920.059713 562.988472,923.237104 562.828454,925.188028 562.662398,927.172469 562.178189,932.535714 572.679245,933.447070 573.108193,928.040551 573.258127,926.245642 573.450402,923.915656 573.696349,920.950193 573.863653,919.021362 575.509264,919.151486 577.597119,919.327360 579.718897,919.502478 585.281654,919.956756 590.840680,920.244209 591.647860,910.500568"/>
    <poly id="105187864#1" type="landuse.commercial" color="209,209,204" fill="1" layer="-3.00" shape="591.647860,910.500568 586.106193,910.079194 580.720074,909.632093 578.734234,909.465063 576.925291,909.316335 574.266279,909.097592 574.945161,900.903564 575.867902,889.043076 565.970091,888.095966 564.914168,900.070712 564.336357,907.016181 563.808170,913.448666 563.380294,918.599225 563.256826,920.059713 562.988472,923.237104 562.828454,925.188028 562.662398,927.172469 562.178189,932.535714 572.679245,933.447070 573.108193,928.040551 573.258127,926.245642 573.450402,923.915656 573.696349,920.950193 573.863653,919.021362 575.509264,919.151486 577.597119,919.327360 579.718897,919.502478 585.281654,919.956756 590.840680,920.244209 591.647860,910.500568"/>
    <poly id="105187865" type="building.office" color="255,230,230" fill="1" layer="-1.00" shape="621.251677,844.641799 719.670463,852.146693 712.600158,919.460080 710.636774,940.969208 708.662079,962.578741 570.923420,951.157095 560.776941,950.315709 524.856162,947.335642 531.906095,870.730724 567.272147,873.467329 566.533949,881.740578 541.420159,879.709412 539.324713,904.993874 564.336357,907.016181 563.808170,913.448666 563.380294,918.599225 541.450357,916.875217 539.358986,942.037186 561.243061,943.840100 562.178189,932.535714 572.679245,933.447070 571.719014,944.540588 587.189028,945.763730 588.309784,931.829068 599.415161,932.749227 599.847372,927.487299 621.860884,929.309847 621.058446,938.964354 684.942556,944.235928 689.169168,893.377063 700.043181,894.269236 701.156341,880.891166 651.505089,876.792455 652.425062,865.710988 637.701883,864.504327 635.631653,889.420952 617.657760,887.942034 620.471384,854.073256 621.251677,844.641799"/>
    <poly id="105187865#1" type="landuse.commercial" color="209,209,204" fill="1" layer="-3.00" shape="621.251677,844.641799 719.670463,852.146693 712.600158,919.460080 710.636774,940.969208 708.662079,962.578741 570.923420,951.157095 560.776941,950.315709 524.856162,947.335642 531.906095,870.730724 567.272147,873.467329 566.533949,881.740578 541.420159,879.709412 539.324713,904.993874 564.336357,907.016181 563.808170,913.448666 563.380294,918.599225 541.450357,916.875217 539.358986,942.037186 561.243061,943.840100 562.178189,932.535714 572.679245,933.447070 571.719014,944.540588 587.189028,945.763730 588.309784,931.829068 599.415161,932.749227 599.847372,927.487299 621.860884,929.309847 621.058446,938.964354 684.942556,944.235928 689.169168,893.377063 700.043181,894.269236 701.156341,880.891166 651.505089,876.792455 652.425062,865.710988 637.701883,864.504327 635.631653,889.420952 617.657760,887.942034 620.471384,854.073256 621.251677,844.641799"/>
    <poly id="105187866" type="building.yes" color="255,230,230" fill="1" layer="-1.00" shape="635.631653,889.420952 633.192724,918.796892 622.808483,917.949561 621.860884,929.309847 599.847372,927.487299 600.388675,921.032270 590.840680,920.244209 591.647860,910.500568 592.401867,901.414649 616.373954,903.393694 617.657760,887.942034 635.631653,889.420952"/>
    <poly id="105187866#1" type="landuse.commercial" color="209,209,204" fill="1" layer="-3.00" shape="635.631653,889.420952 633.192724,918.796892 622.808483,917.949561 621.860884,929.309847 599.847372,927.487299 600.388675,921.032270 590.840680,920.244209 591.647860,910.500568 592.401867,901.414649 616.373954,903.393694 617.657760,887.942034 635.631653,889.420952"/>
    <poly id="105347619" type="building.apartments" color="255,230,230" fill="1" layer="-1.00" shape="544.465272,1157.299456 544.258125,1157.749196 543.429286,1159.537037 537.580336,1156.897061 539.937879,1151.836869 536.037643,1148.619179 535.588749,1149.185605 532.827009,1147.099733 533.275157,1146.499941 528.389828,1142.636631 526.831520,1144.585452 525.929981,1146.764391 526.725421,1147.124940 525.300544,1150.183546 518.329423,1147.446290 511.358046,1144.697922 514.996876,1134.712866 514.539986,1132.797996 515.045344,1131.417984 516.390766,1130.876011 518.411208,1125.311475 519.612619,1123.793488 518.582592,1122.959697 520.858007,1119.993339 521.936270,1120.859434 522.741818,1119.851049 529.039361,1124.639747 529.473942,1124.040259 539.539338,1131.893828 540.383106,1130.773314 543.892982,1133.532374 547.409887,1136.302408 546.606327,1137.399765 557.030920,1145.534655 552.700221,1154.633808 549.306942,1151.927772 545.749838,1152.519201 543.797493,1156.880411 544.465272,1157.299456"/>
    <poly id="105347629" type="building.apartments" color="255,230,230" fill="1" layer="-1.00" shape="572.222418,1181.382205 582.716409,1170.464986 589.176049,1176.741244 595.642457,1183.017359 595.660466,1186.555562 578.358428,1203.845349 566.983021,1195.375593 569.254738,1193.154896 575.339299,1187.210189 576.787182,1185.786854 572.222418,1181.382205"/>
    <poly id="105347632" type="building.residential" color="255,230,230" fill="1" layer="-1.00" shape="560.063246,1168.523423 560.486745,1168.035462 555.797663,1163.233010 553.990888,1164.998209 554.462916,1165.466143 552.130948,1167.421130 554.251463,1169.365565 551.270912,1176.008688 549.834026,1175.495566 548.694605,1177.357119 543.733446,1173.439852 547.195561,1166.173930 550.035247,1160.212743 552.700221,1154.633808 557.030920,1145.534655 569.651625,1157.782216 582.716409,1170.464986 572.222418,1181.382205 570.802915,1182.860545 564.421698,1189.501808 564.262358,1189.661159 559.701924,1186.057619 561.144083,1184.378470 560.728074,1183.987176 568.273163,1176.273880 563.652437,1171.492149 563.177468,1171.803218 560.063246,1168.523423"/>
    <poly id="105347635" type="building.hotel" color="255,230,230" fill="1" layer="-1.00" shape="442.786283,1224.037401 448.821930,1225.315504 451.103601,1223.239186 453.553012,1216.830439 455.809608,1210.904500 468.053697,1215.114906 464.168682,1225.617389 459.861321,1237.264354 459.086739,1239.351445 444.931490,1236.786235 429.733761,1234.044109 420.308380,1232.341183 423.151425,1217.444293 429.450674,1218.671960 429.172217,1220.180434 430.098861,1221.550650 432.716948,1222.070674 432.978976,1221.041059 436.235776,1221.591296 436.119575,1222.161410 442.903232,1223.500653 442.786283,1224.037401"/>
    <poly id="105347637" type="building.apartments" color="255,230,230" fill="1" layer="-1.00" shape="407.871175,1230.115952 409.818141,1219.156073 416.914632,1220.521658 418.737584,1210.388010 424.287590,1211.498915 423.151425,1217.444293 420.308380,1232.341183 407.871175,1230.115952"/>
    <poly id="105347640" type="building.apartments" color="255,230,230" fill="1" layer="-1.00" shape="390.690726,1227.040004 392.741719,1215.877488 397.990729,1216.883827 405.946025,1218.408207 409.818141,1219.156073 407.871175,1230.115952 390.690726,1227.040004"/>
    <poly id="105349132" type="building.hotel" color="255,230,230" fill="1" layer="-1.00" shape="491.479023,1236.100508 487.929156,1234.889131 489.303073,1231.375417 492.921531,1232.618643 493.745858,1230.630594 496.044379,1225.059823 500.310510,1226.733671 511.270037,1233.298613 503.448819,1249.898086 488.349904,1243.681726 490.487518,1238.504023 491.479023,1236.100508"/>
    <poly id="105349133" type="building.commercial" color="255,230,230" fill="1" layer="-1.00" shape="505.244976,1158.165670 506.013620,1155.811656 507.557456,1155.643583 507.973303,1154.510382 513.757051,1156.662163 513.959965,1156.023345 515.534538,1156.622398 517.109110,1157.221451 516.878311,1157.827510 520.478701,1159.171311 522.096084,1160.470453 522.348032,1160.809776 522.505994,1161.195712 522.562690,1161.606168 522.511086,1162.030175 522.349938,1162.412121 522.099599,1162.751552 521.772642,1163.003676 520.998917,1163.310304 520.593601,1163.397265 519.766415,1163.438025 518.846703,1166.017970 520.025958,1168.061341 522.464054,1169.030547 522.805459,1168.210588 528.752934,1170.703683 528.364537,1171.546948 530.796592,1172.549677 533.634082,1166.187932 533.298916,1166.073024 537.580336,1156.897061 543.429286,1159.537037 544.334515,1159.950771 542.448842,1163.954405 547.195561,1166.173930 543.733446,1173.439852 543.059225,1174.857021 538.337094,1172.826121 534.144697,1181.733028 538.896762,1183.585211 536.964609,1187.634398 500.789588,1173.821875 501.046028,1173.148476 500.051239,1172.069092 500.925191,1169.568061 502.390597,1169.535273 506.193521,1159.301728 505.244976,1158.165670"/>
    <poly id="105349135" type="building.hotel" color="255,230,230" fill="1" layer="-1.00" shape="496.723931,1238.442367 495.995395,1240.161207 498.304064,1241.111041 500.244525,1241.379198 501.688389,1239.777886 501.561492,1238.656828 502.829726,1235.879910 503.663749,1235.538546 504.223366,1234.157318 502.904192,1233.140830 501.229923,1233.545505 499.127266,1232.702337 498.646324,1233.959400 497.411470,1234.587927 496.163591,1237.364391 496.723931,1238.442367"/>
    <poly id="105349136" type="building.apartments" color="255,230,230" fill="1" layer="-1.00" shape="500.694923,1211.758315 501.133095,1211.926554 499.922980,1215.481111 499.408938,1215.258931 497.998783,1218.973752 499.226650,1220.459645 499.753016,1220.625910 500.028313,1219.885323 501.190037,1219.325199 501.335871,1218.865701 509.304116,1221.881068 509.815185,1220.756864 512.789892,1222.047891 511.722869,1225.020603 514.659172,1226.112191 512.805731,1230.037223 511.270037,1233.298613 500.310510,1226.733671 496.044379,1225.059823 481.157369,1219.217084 482.739549,1214.697213 483.820168,1215.062500 483.980564,1214.647186 485.333547,1215.050889 490.077799,1202.904554 488.900706,1202.474658 489.067390,1202.036948 487.760151,1201.554326 489.443112,1196.987693 492.085475,1197.985696 525.942898,1210.759479 522.629920,1217.710507 519.318309,1216.226713 518.710034,1216.040022 519.387859,1214.177661 516.061365,1212.939011 514.943365,1215.757075 512.166891,1214.528378 512.586964,1213.584253 504.309435,1210.397757 504.623697,1209.578404 504.326631,1208.739345 504.595642,1208.021154 504.007719,1207.834009 502.007301,1208.223726 500.694923,1211.758315"/>
    <poly id="105349138" type="building.apartments" color="255,230,230" fill="1" layer="-1.00" shape="520.034763,1202.134149 528.568851,1205.259295 525.942898,1210.759479 492.085475,1197.985696 496.437520,1185.903784 500.789588,1173.821875 536.964609,1187.634398 534.176991,1193.494279 524.580563,1190.214844 523.630981,1192.673052 520.557233,1191.506639 520.926270,1190.708317 512.715374,1187.164228 512.987374,1186.579502 512.708986,1185.361684 512.925716,1184.733684 510.417961,1185.201514 509.129721,1188.602028 509.491212,1188.983409 508.205462,1192.495145 507.548385,1192.554356 506.238736,1196.211287 507.707407,1198.448478 508.041079,1198.496651 508.449143,1197.319113 509.201762,1196.979572 509.422539,1196.229076 517.773221,1199.347180 518.135290,1198.237438 521.032892,1199.418917 520.034763,1202.134149"/>
    <poly id="105354131" type="building.residential" color="255,230,230" fill="1" layer="-1.00" shape="469.429943,1242.335843 471.127108,1242.954393 473.098648,1237.635737 484.034054,1241.908853 482.090950,1246.982058 478.999692,1255.040927 476.883383,1260.563119 476.014078,1260.237615 466.100996,1256.453510 469.692584,1246.792173 467.983595,1246.251782 469.429943,1242.335843"/>
    <poly id="105354133" type="building.residential" color="255,230,230" fill="1" layer="-1.00" shape="466.100996,1256.453510 476.014078,1260.237615 473.938792,1265.469570 470.932582,1273.081434 461.273771,1269.436309 466.100996,1256.453510"/>
    <poly id="105354134" type="building.residential" color="255,230,230" fill="1" layer="-1.00" shape="476.883383,1260.563119 478.999692,1255.040927 489.516741,1259.123118 489.202984,1259.964717 491.279491,1260.852977 489.438776,1265.345247 476.883383,1260.563119"/>
    <poly id="105354135" type="building.residential" color="255,230,230" fill="1" layer="-1.00" shape="458.034184,1278.143920 468.205585,1282.856952 462.476719,1297.707130 452.362043,1293.404566 455.198109,1285.774242 458.034184,1278.143920"/>
    <poly id="105354426" type="building.apartments" color="255,230,230" fill="1" layer="-1.00" shape="443.747736,1281.234528 435.744057,1303.313037 423.544602,1300.481554 432.076203,1276.822197 443.747736,1281.234528"/>
    <poly id="105354427" type="building.apartments" color="255,230,230" fill="1" layer="-1.00" shape="435.744057,1303.313037 429.403457,1320.847603 417.886613,1317.277551 423.544602,1300.481554 435.744057,1303.313037"/>
    <poly id="105354428" type="building.commercial" color="255,230,230" fill="1" layer="-1.00" shape="412.853798,1261.662697 413.215519,1259.629354 419.662474,1260.786932 419.499724,1261.703048 416.787435,1262.431445 414.723532,1273.928070 408.671816,1272.839542 402.620096,1271.751021 404.708369,1260.131439 402.424643,1258.780492 402.629649,1257.629747 408.778854,1258.827362 408.410600,1260.871979 410.502802,1261.247980 412.853798,1261.662697"/>
    <poly id="105354429" type="building.commercial" color="255,230,230" fill="1" layer="-1.00" shape="425.819805,1249.009483 422.193216,1269.532280 416.945270,1298.882276 411.001194,1297.446376 412.327394,1290.895841 410.974721,1288.989912 397.699469,1286.616563 396.187123,1287.885610 395.013358,1293.664924 394.754316,1293.615087 388.925555,1292.176631 397.981648,1244.057890 413.451234,1246.816086 425.819805,1249.009483"/>
    <poly id="105354430" type="building.residential" color="255,230,230" fill="1" layer="-1.00" shape="455.779767,1323.584286 471.077029,1329.573545 478.231985,1310.206996 463.017762,1304.594196 455.779767,1323.584286"/>
    <poly id="105354431" type="building.residential" color="255,230,230" fill="1" layer="-1.00" shape="488.533288,1331.041199 486.405027,1330.265377 482.238877,1342.153975 472.931614,1336.620383 470.301145,1335.544232 464.657061,1333.255849 441.100588,1323.679218 446.734689,1308.541812 452.362043,1293.404566 462.476719,1297.707130 466.794023,1299.546717 467.551419,1297.905120 480.054261,1302.465844 481.697715,1297.955728 495.708208,1305.587379 490.463641,1319.636619 492.311519,1320.318568 488.533288,1331.041199"/>
    <poly id="105354432" type="building.apartments" color="255,230,230" fill="1" layer="-1.00" shape="449.109726,1266.370285 443.747736,1281.234528 432.076203,1276.822197 436.731936,1264.065761 449.109726,1266.370285"/>
    <poly id="105354433" type="building.apartments" color="255,230,230" fill="1" layer="-1.00" shape="425.819805,1249.009483 453.574188,1254.163406 449.109726,1266.370285 436.731936,1264.065761 428.731727,1262.653617 426.904720,1270.483917 422.193216,1269.532280 425.819805,1249.009483"/>
    <poly id="105354599" type="building.apartments" color="255,230,230" fill="1" layer="-1.00" shape="365.655025,1334.159758 419.814604,1347.301443 424.451618,1334.623302 412.754253,1331.780606 415.696963,1323.157502 389.919393,1313.820020 387.066694,1324.944859 376.035616,1322.154091 368.952881,1320.487813 365.655025,1334.159758"/>
    <poly id="105354601" type="building.apartments" color="255,230,230" fill="1" layer="-1.00" shape="415.696963,1323.157502 417.092707,1319.409593 417.886613,1317.277551 429.403457,1320.847603 428.604507,1323.057650 424.451618,1334.623302 412.754253,1331.780606 415.696963,1323.157502"/>
    <poly id="105733615" type="building.yes" color="255,230,230" fill="1" layer="-1.00" shape="732.892482,1347.645160 734.326913,1329.508393 747.247248,1330.288181 745.542163,1349.376838 732.892482,1347.645160"/>
    <poly id="105733616" type="building.residential" color="255,230,230" fill="1" layer="-1.00" shape="679.272976,1345.871604 679.077871,1348.379692 678.883014,1350.898902 677.388043,1350.821022 657.229727,1349.012477 648.157209,1348.202581 642.410035,1347.674476 640.580406,1347.503937 633.405103,1346.851970 626.028065,1342.944108 628.572495,1338.046695 629.046560,1338.303164 631.362472,1332.898986 637.613016,1336.208880 641.509723,1336.544651 662.801034,1338.327819 663.378972,1331.081910 663.978831,1323.601829 664.174427,1321.115985 665.371157,1321.211652 677.813838,1322.179973 679.739445,1322.392893 681.244439,1322.615210 681.021946,1325.112782 680.799951,1327.632598 679.310762,1327.510077 679.049155,1330.687312 678.963965,1331.735218 677.804394,1345.759751 679.272976,1345.871604"/>
    <poly id="105733620" type="building.commercial" color="255,230,230" fill="1" layer="-1.00" shape="675.319451,1375.804381 646.051042,1373.320329 648.157209,1348.202581 657.229727,1349.012477 677.388043,1350.821022 676.350476,1363.318338 675.319451,1375.804381"/>
    <poly id="105733622" type="building.yes" color="255,230,230" fill="1" layer="-1.00" shape="738.169473,1361.770768 753.667984,1363.116157 754.643034,1350.241919 747.958937,1349.701223 747.709853,1351.921193 745.365469,1351.495042 745.542163,1349.376838 732.892482,1347.645160 732.016257,1359.471195 730.558202,1360.438477 732.655244,1363.162446 737.996915,1363.466028 738.169473,1361.770768"/>
    <poly id="105733623" type="building.commercial" color="255,230,230" fill="1" layer="-1.00" shape="565.974598,1367.910786 569.727939,1368.817217 569.867170,1368.669444 569.957600,1368.767571 568.477845,1370.280645 568.224847,1370.197281 565.486052,1381.575394 565.281040,1381.513213 564.995341,1382.699137 562.163321,1382.016915 562.107240,1382.240723 557.323306,1381.079154 550.273652,1379.367369 549.578518,1378.937808 548.936412,1378.451423 548.387292,1377.873937 547.938191,1377.216320 547.602676,1376.478269 547.395559,1375.715090 547.316592,1374.915662 547.373305,1374.113199 547.491074,1373.309371 557.279315,1354.529454 567.932417,1360.155511 565.974598,1367.910786"/>
    <poly id="105733627" type="building.residential" color="255,230,230" fill="1" layer="-1.00" shape="619.720417,1348.315105 619.634390,1348.717625 618.402038,1349.457342 617.498155,1353.049535 615.771354,1352.620769 603.021212,1349.433943 602.816448,1349.382882 605.562703,1344.102602 605.816945,1344.241579 608.179357,1339.704309 613.268937,1329.942831 628.572495,1338.046695 626.028065,1342.944108 622.833462,1341.223951 621.083283,1341.875093 618.536874,1346.683533 619.467668,1348.242860 619.720417,1348.315105"/>