<?xml version="1.0" encoding="UTF-8"?>

<!-- generated on 06/06/21 21:06:12 by Eclipse SUMO duarouter Version 1.7.0
<configuration xmlns:xsi="http://www.w3.org/2001/XMLSchema-instance" xsi:noNamespaceSchemaLocation="http://sumo.dlr.de/xsd/duarouterConfiguration.xsd">

    <input>
        <net-file value="D:\github\sumo-learning\2021-06-06-21-05-49\osm.net.xml"/>
        <route-files value="D:\github\sumo-learning\2021-06-06-21-05-49\osm.passenger.trips.xml"/>
    </input>

    <output>
        <output-file value="routes.rou.xml"/>
        <alternatives-output value="routes.rou.alt.xml"/>
    </output>

    <time>
        <begin value="0"/>
        <end value="3600"/>
    </time>

    <report>
        <no-warnings value="true"/>
        <ignore-errors value="true"/>
        <no-step-log value="true"/>
    </report>

</configuration>
-->

<routes xmlns:xsi="http://www.w3.org/2001/XMLSchema-instance" xsi:noNamespaceSchemaLocation="http://sumo.dlr.de/xsd/routes_file.xsd">
    <vType id="veh_passenger" vClass="passenger"/>
    <vehicle id="veh0" type="veh_passenger" depart="0.00" departLane="best">
        <route edges="252494905#0 252494905#1 312614636#2 312614636#3 312614636#4 49153822#4 49153822#6 49153822#7 49153822#8 49153822#9 304408986#1 244618580#1 244618580#3 244618580#4 244618580#5 -48776405#12 49153905#1 -362781447#1 -362781447#0 229061414#3"/>
    </vehicle>
    <vehicle id="veh1" type="veh_passenger" depart="2.46" departLane="best">
        <route edges="49153822#1 336696230#1 336696230#2 336696230#3 244509930#0 244509930#2 244509930#3 790658659 255431325 465196147#0 465196147#1 465196147#2 465196147#4 465196147#7 465196147#9 465196147#11 465196147#12 465196147#14 299836294 -793186868#2 -793186868#1 -793186868#0 -226831229#3 -226831229#2 -226831229#1 -226831229#0 -404179543#3 -404179543#2 -404179543#1 -404179543#0 -198735199 48768159#0"/>
    </vehicle>
    <vehicle id="veh2" type="veh_passenger" depart="4.92" departLane="best">
        <route edges="51797021#6 51797021#7 51797021#8 51797021#9 51797021#10 198645485#1 198645485#3 198645485#4 198645485#5 198645485#6 312614635#1 312614635#2 312614635#3 312614634#0 335596325#2 335596325#3 335596325#4 252657381#2 49153742#0 -49153742#0"/>
    </vehicle>
    <vehicle id="veh3" type="veh_passenger" depart="7.38" departLane="best">
        <route edges="226831242#7 48776382#1 48776382#2 48776382#3 48776382#6 48776382#7 48776382#9 48776382#10 334814745#0 334814745#1 334814745#3 334814745#4 334814745#6 334814745#7 465196147#7 465196147#9 465196147#11 465196147#12 355984262#0 355984262#2 355984262#3"/>
    </vehicle>
    <vehicle id="veh4" type="veh_passenger" depart="9.84" departLane="best" departSpeed="max">
        <route edges="-304481581#6 -304481581#3 -304481581#0 -302110685#2 -302110685#1 506339431#1 506339431#2 506339431#4 506339431#5 506339431#6 506322866 506322869#0 506322869#1 506322869#2 506322869#3 506322869#4 226831230#5 226831230#6 226831230#7 226831230#8 226831230#9 226831230#11 226831230#12 226831230#2 226831230#3"/>
    </vehicle>
    <vehicle id="veh6" type="veh_passenger" depart="14.76" departLane="best">
        <route edges="506316044#3 506316044#4 506316044#5 506316044#6 506316044#7 375486265#2 233952025#0 233952025#1 233952025#2 233952025#3 233952025#4 303873191#1 303873191#2 303873196#1 303873196#2 303873196#3 303873196#7 303873196#8 303873196#9 518980180 518980177#0 518980177#1 518980177#2 518978935#0 518978935#1 518977854 518977865#0 518977865#1 -506339439#8 -506339439#7 -506339439#6 -506339439#5 -506339439#4 -506339439#3 -506339439#2 -48776405#12 -48776405#11 -48776405#9 -48776405#8 48776405#8"/>
    </vehicle>
    <vehicle id="veh7" type="veh_passenger" depart="17.22" departLane="best">
        <route edges="268564476#1 268564476#2 268564476#3 550544430#16 550544430#17 198645485#1 198645485#3 198645485#4 198645485#5 198645485#6 326969446#0 326969446#1 326969446#2 326969446#3 326969446#6 265740465#1 265740465#3 289004420#0 289004420#1 303829825 231570915 407206571 49749048 771835297#0 771835298 49749049#1 138265878 229070402#0 -136814139#4 -136814139#3 -136814139#2 -136814139#1 -136814139#0 136814139#0"/>
    </vehicle>
    <vehicle id="veh8" type="veh_passenger" depart="19.68" departLane="best" departSpeed="max">
        <route edges="518982579#0 518982579#1 324741384#0 324741384#1 324741384#2 506322863 255431333#0 255431333#1 255431333#2 255431333#4 255431333#5 255431333#6 255431333#7 255431333#10 255431333#11 255431333#14 255431333#15 255431333#17 255431326#1 255431326#2 255431326#3 255431326#4 255431326#5 255431326#6 255431326#7 255431326#8 255431325 465196147#0 465196147#1 465196147#2 465196147#4 465196147#7 465196147#9 465196147#11 465196147#12 465196147#14 299836294 299836293#0 506316044#17 48776382#10 -299836295#2 -299836295#1 226831228 49153751#0 49153751#1 49153751#2 49153751#3 334841515#1 334841515#3 334841513#1 334841513#2 268564481#0 268564481#1"/>
    </vehicle>
    <vehicle id="veh9" type="veh_passenger" depart="22.14" departLane="best">
        <route edges="-48794929#4 -48794929#3 -48794929#2 334814745#10 334814745#11 334814745#12 334814745#13 334814745#14 334814745#15 334814745#16 309157017#0 309157017#1 309157017#2 49153775#1 49153775#2 -49153775#2"/>
    </vehicle>
    <vehicle id="veh10" type="veh_passenger" depart="24.60" departLane="best">
        <route edges="506322871#0 506322871#1 506322871#2 506322871#3 506322871#4 506322871#5 506322871#6 506322869#4 226831230#5 226831230#6 48742273#0"/>
    </vehicle>
    <vehicle id="veh11" type="veh_passenger" depart="27.06" departLane="best">
        <route edges="506316044#4 506316044#5 506316044#6 506316044#7 375486265#2 226831229#1 226831229#2 226831229#3 793186868#0 793186868#1 793186868#2 299836293#0 506316044#17 48776382#10 334814745#0 334814745#1 334814745#3 334814745#4 334814745#6 334814745#7 334814745#10 334814745#11 334814745#12 334814745#13 334814745#14 334814745#15 334814745#16 309157017#0 309157017#1 309157017#2 309157017#3 49153768#0 49153768#1 49153768#2 49153768#3"/>
    </vehicle>
    <vehicle id="veh13" type="veh_passenger" depart="31.98" departLane="best">
        <route edges="303873191#1 303873191#2 303873196#1 303873196#2 303873196#3 303873196#7 303873196#8 303873196#9 518980180 518980177#0 518980177#1 518980177#2 518978935#0 518978935#1 518977856#0 518977856#1 518977856#2 309157013 -244509930#3 -244509930#2 -244509930#0 -309157015#2 -309157015#1 -309157015#0 49153842#1 198645488#0 49153846 456417603"/>
    </vehicle>
    <vehicle id="veh14" type="veh_passenger" depart="34.44" departLane="best">
        <route edges="506322865#2 506322865#3 431945134#2 324741384#0 324741384#1 324741384#2 506322869#0 506322869#1 506322869#2 506322869#3 506322869#4 226831230#5 226831230#6 226831230#7 226831230#8 48740801#0 48740801#1 48740801#2 48740801#3 48740801#4 48740801#5 48740801#6 48742276#10 48742276#11 48742276#12"/>
    </vehicle>
    <vehicle id="veh15" type="veh_passenger" depart="36.90" departLane="best">
        <route edges="506339431#5 506339431#6 506322866 506322869#0 506322869#1 506322869#2 506322869#3 506322869#4 226831230#5 226831230#6 226831230#7 226831230#8 226831230#9 226831230#11 226831230#12 226831230#2 48740805 308448932#0 48740803#12"/>
    </vehicle>
    <vehicle id="veh16" type="veh_passenger" depart="39.36" departLane="best">
        <route edges="48810825#1 -48810825#1 -48810825#0 793186868#0 793186868#1 793186868#2 299836293#0 506316044#17 48776382#10 -299836295#2 -299836295#1 226831228 238704237 49153851#0 49153851#1 49153841#0 49153841#2 383315936 49153826#1 198645495#0 198645495#1 222747663#1 268564476#1 268564476#2 268564476#3 -333599256#1 -333599256#0 333599230 -333599230"/>
    </vehicle>
    <vehicle id="veh17" type="veh_passenger" depart="41.82" departLane="best">
        <route edges="229070522#1 229070522#2 334841512#2 334841512#3 299836291 48810823 299836295#1 299836295#2 334814745#0 334814745#1 334814745#3 334814745#4 334814745#6 334814745#7 334814745#10 334814745#11 334814745#12 334814745#13 334814745#14 334814745#15 334814745#16 334814745#17 334814745#18 334814745#19 334814745#20 334814745#21 334814745#22 255431326#1 255431326#2 255431326#3"/>
    </vehicle>
    <vehicle id="veh18" type="veh_passenger" depart="44.28" departLane="best" departSpeed="max">
        <route edges="-48742255 464580660#1 245932669#1 245932669#2 245932669#3 35928055#6 35928055#7 35928055#8 29558201 264410579 198735199 404179543#0 404179543#1 404179543#2 404179543#3 226831229#0 226831229#1 226831229#2 226831229#3 793186868#0 793186868#1 793186868#2 299836293#0 506316044#17 48776382#10 -299836295#2 -299836295#1 226831228 49153751#0 49153751#1 49153751#2 49153751#3 334841515#1 334841515#3 334841514#1 231534776#3 231534776#5"/>
    </vehicle>
    <vehicle id="veh19" type="veh_passenger" depart="46.74" departLane="best">
        <route edges="-49153768#2 -49153768#1 -49153768#0 309157017#4 309157017#5 309157017#6 309157017#7 309157017#8 -309157015#1 -309157015#0 309157014#1 353798159#1 353798159#2 252657372#2"/>
    </vehicle>
    <vehicle id="veh20" type="veh_passenger" depart="49.20" departLane="best">
        <route edges="48742276#9 48742276#10 48768159#1 48768159#2 48768159#3 48768159#4 48768159#5 48768159#6 308448931 226831230#11 226831230#12 226831230#2 48740805 35928056#0 35928056#1 35928056#2 35928056#3 255431335#0 255431335#1 255431335#2 255431333#0 255431333#1 255431333#2 255431333#4 255431333#5 255431333#6 255431333#7 255431333#10 255431333#11 255431333#14 255431333#15 255431333#17 297603932#1 297603932#3 297603932#4"/>
    </vehicle>
    <vehicle id="veh21" type="veh_passenger" depart="51.66" departLane="best">
        <route edges="297603932#3 297603932#4 304408986#1 244618580#1 244618580#3 244618580#4 244618580#5 506339435#1 506339435#2 506339431#1 506339431#2 506339431#4 506339431#5 506339431#6 506322866 506322869#0 506322869#1 506322869#2 506322869#3 506322869#4 226831230#5 226831230#6 226831230#7 226831230#8"/>
    </vehicle>
    <vehicle id="veh22" type="veh_passenger" depart="54.12" departLane="best">
        <route edges="244618580#5 506339439#2 506339439#3 506339439#4 506339439#5 506339439#6 506339439#7 506339439#8 -518977865#1 -518977865#0 -518977854 518977852#1 518977852#2 518978933#0 518978933#1 518978933#2 518980176 312929524 226831244 518980181 518980180"/>
    </vehicle>
    <vehicle id="veh23" type="veh_passenger" depart="56.58" departLane="best">
        <route edges="48768070#17 48768070#18 375486265#0 375486265#1 375486265#2 233952025#0 233952025#1 233952025#2 233952025#3 233952025#4 303873191#1 303873191#2 303873196#1 303873196#2 303873196#3 303873196#7 303873196#8 303873196#9 518980180 518980178 518980176 518980187#0 518980187#1 518980187#2 518980187#3 518980187#4 226831230#2 226831230#3 226831230#5 226831230#6 48742273#0 48742273#3 48742273#4"/>
    </vehicle>
    <vehicle id="veh24" type="veh_passenger" depart="59.04" departLane="best">
        <route edges="197466298 252657383#0 252657383#1 434508489#0 434508489#1 51797050#0 51797050#1 51797050#2 51797050#3 268569312#8 268569312#9 238526536 317385446#0 317385446#1 317385446#2 317385446#5 304408986#1 255431326#1 255431326#2 255431326#3 255431326#4 255431326#5 255431326#6 255431326#7 255431326#8 255431325 465196147#0 518977867#4 309157017#0 309157017#1 309157017#2 309157017#3 49153768#0 49153768#1"/>
    </vehicle>
    <vehicle id="veh26" type="veh_passenger" depart="63.96" departLane="best" departSpeed="max">
        <route edges="746296430#0 746296430#2 746296430#3 746296430#4 255431326#1 255431326#2 255431326#3 255431326#4 255431326#5 255431326#6 255431326#7 255431326#8 255431324#0 255431324#1 255431324#2 518977852#1 518977852#2 518978933#0 518978933#1 518978933#2 518980176 518980187#0 518980187#1 518980187#2 518980187#3 518980187#4 226831230#2 226831230#3 226831230#5 226831230#6 226831230#7 226831230#8 48740801#0 35928055#0 35928055#1 35928055#2 35928055#3 35928055#4 48742261#1 48742261#2 464580660#0 464580660#1 245932669#1 245932669#2 48742278#3 48742278#4"/>
    </vehicle>
    <vehicle id="veh27" type="veh_passenger" depart="66.42" departLane="best">
        <route edges="465196147#12 465196147#14 299836294 -793186868#2 -793186868#1 -793186868#0 -226831229#3 -226831229#2 -226831229#1 -226831229#0 -404179543#3 -404179543#2 -404179543#1 -404179543#0 -198735199 48768159#0 48768159#1 48768159#2 48768159#3 48768159#4 48768159#5 48768159#6"/>
    </vehicle>
    <vehicle id="veh28" type="veh_passenger" depart="68.88" departLane="best">
        <route edges="506322869#1 506322869#2 506322869#3 506322869#4 226831230#5 226831230#6 226831230#7 226831230#8 48740801#0 48740801#1 48740801#2 48740801#3 48740801#4 48740801#5 48740801#6 48740801#7 198735199 404179543#0 404179543#1 404179543#2 404179543#3 226831229#0 226831229#1 226831229#2 226831229#3 793186868#0 793186868#1 793186868#2 299836293#0 506316044#17 48776382#10 -299836295#2 -299836295#1 226831228 49153751#0 49153751#1 49153751#2 49153751#3 229885553#2 229885553#3 49730072#0 49730072#1 49730072#2 49730072#3"/>
    </vehicle>
    <vehicle id="veh29" type="veh_passenger" depart="71.34" departLane="best">
        <route edges="229070522#2 229887107#1 229887107#2 49153841#2 136814138#0 326969440#0 326969440#1 309157015#0 309157015#1 48768137#0 336696230#3 -309157015#2"/>
    </vehicle>
    <vehicle id="veh30" type="veh_passenger" depart="73.80" departLane="best">
        <route edges="255431333#2 255431333#4 255431333#5 255431333#6 255431333#7 255431333#10 255431333#11 255431333#14 255431333#15 255431333#17 297603932#1 297603932#3 297603932#4 336696224#2 336696224#6 336696224#7 336696224#8 316690653 198645497 506339449#0 506339449#1 506339449#2 506339449#3 506339449#4 197466298 252657383#0 252657383#1 252657383#2 252657383#3 252657383#4 317385447#3 317385447#5 317385447#7 328716075 328716076 252494921#0 252494921#1 252494921#2"/>
    </vehicle>
    <vehicle id="veh31" type="veh_passenger" depart="76.26" departLane="best" departSpeed="max">
        <route edges="51420623#0 51420623#1 51420623#2 51420623#3 51420623#4 51420623#5 51420623#6 51420623#7 317385446#5 304408986#1 244618580#1 244618580#3 244618580#4 244618580#5 506339435#1 506339435#2 506339431#1 506339431#2 506339431#4 506339431#5 506339431#6 506322866 506322863 255431336"/>
    </vehicle>
    <vehicle id="veh32" type="veh_passenger" depart="78.72" departLane="best">
        <route edges="48768134#2 48768134#3 48768134#4 226831227 518980178 518980176 518980187#0 518980187#1 518980187#2 518980187#3 518980187#4 226831230#2 226831230#3 226831230#5 48742279#0 30620527#0 30620527#1 30620527#2 30620527#3 30620527#4"/>
    </vehicle>
    <vehicle id="veh33" type="veh_passenger" depart="81.18" departLane="best">
        <route edges="518978933#0 518978933#1 518978933#2 518980176 312929524 226831227 518980177#0 518980177#1 518980177#2 518978935#0 518978935#1 518977856#0 518977856#1 518977856#2 309157013 -244509930#3 -244509930#2 -244509930#0 -309157015#2 -309157015#1 -309157015#0 309157014#1 244509947#1 222747662#1 222747662#2 222747662#3 268569318#2 268569318#3 268569320#0 268569320#1 268569320#2 268569320#3 326969446#0 326969446#1 326969446#2 326969446#3"/>
    </vehicle>
    <vehicle id="veh34" type="veh_passenger" depart="83.64" departLane="best">
        <route edges="244618580#4 244618580#5 255431333#14 255431333#15 255431333#17 297603932#1 297603932#3 297603932#4 336696224#2 336696224#6 336696224#7 336696224#8 316690653 198645497 506339449#0 506339449#1 506339449#2 506339449#3 292990053#1 51797050#0 51797050#1 51797050#2 51797050#3 268569312#8 268569312#9 238526536"/>
    </vehicle>
    <vehicle id="veh35" type="veh_passenger" depart="86.10" departLane="best">
        <route edges="468226875#15 468226875#16 468226875#17 518977870 518977856#0 518977856#1 518977856#2 309157013 -244509930#3 -244509930#2 -244509930#0 -309157015#2 -309157015#1 -309157015#0 309157014#1 244509947#1 198645492#1 137111674#0 137111674#1 312614615 324318761#0 324318761#1 198645497 506339449#0 506339449#1 506339449#2 506339449#3 506339449#4 197466298 252398629#0 252398629#1"/>
    </vehicle>
    <vehicle id="veh36" type="veh_passenger" depart="88.56" departLane="best">
        <route edges="48740803#15 48740803#17 48740803#18 48740803#19 48740803#20 48740803#21 48740803#1 48740803#2 48740803#3 48740803#4 48740803#5 48740803#6 48768134#2 48768134#3 48768134#4 226831227 518980177#0 518980177#1 518980177#2 518978935#0 518978935#1 518977856#0 518977856#1 518977856#2 309157013 -244509930#3 -244509930#2 -244509930#0 -309157015#2 -309157015#1 -309157015#0 309157014#1 244509947#1 198645492#1 137111673#0 137111673#1 198645495#0 198645495#1 222747663#1 268564476#1 268564476#2 268564476#3 268564476#6 362289794#2 362289794#5 -366416868#0 -51797033#1 51797033#1"/>
    </vehicle>
    <vehicle id="veh37" type="veh_passenger" depart="91.02" departLane="best">
        <route edges="30620450#3 30620450#4 30620450#5 518980182#0 518980182#1 518980182#2 518980182#5 518980182#6 518980182#7 518980182#9 518980182#10 518980182#12 518980182#13 518980182#14 518980182#15 518980182#16 226831245#0 226831245#1 226831245#2 226831245#3 226831245#4 226831245#5"/>
    </vehicle>
    <vehicle id="veh38" type="veh_passenger" depart="93.48" departLane="best">
        <route edges="793186869 -226831229#3 -226831229#2 -226831229#1 -226831229#0 -404179543#3 -404179543#2 -404179543#1 -404179543#0 404179544 35928058#0 35928058#1 35928058#2 35928058#3 35928058#5 35928058#6 35928058#7 35928058#8 35928058#9 308448931 226831230#11 226831230#12 226831230#2 226831230#3 226831230#5 226831230#6 226831230#7 226831230#8 48740801#0 35928055#0 35928055#1 35928055#2 35928055#3 35928055#4"/>
    </vehicle>
    <vehicle id="veh39" type="veh_passenger" depart="95.94" departLane="best">
        <route edges="-48776405#8 48776405#8 48776405#9 48776405#11 48776405#12 255431333#14 255431333#15 255431333#17 297603932#1 297603932#3 297603932#4 336696224#2 336696224#6 336696224#7 336696224#8 316690653 198645495#0 198645495#1 222747663#1 268564476#1 268564476#2 268564476#3 -333599256#1 -333599256#0 -18487156#8 -18487156#7 -18487156#6 -18487156#5 -18487156#4 333599294#1 -333599294#1"/>
    </vehicle>
    <vehicle id="veh40" type="veh_passenger" depart="98.40" departLane="best" departSpeed="max">
        <route edges="-49730034#1 -309237290#11 -309237290#10 -309237290#9 23403474#4 23403474#5 334841514#1 229070522#0 229070522#1 229070522#2 334841512#2 334841512#3 299836291 48810823 299836295#1 299836295#2 334814745#0 334814745#1 334814745#3 334814745#4 334814745#6 334814745#7 465196147#7 465196147#9 465196147#11 465196147#12 465196147#14 299836294 -793186868#2 -793186868#1 -793186868#0 -793186869 48742276#23"/>
    </vehicle>
    <vehicle id="veh41" type="veh_passenger" depart="100.86" departLane="best">
        <route edges="506316044#10 506316044#11 -48810825#0 793186868#0 793186868#1 793186868#2 299836293#0 506316044#17 48776382#10 -299836295#2 -299836295#1 226831228 49153751#0 49153751#1 49153751#2 49153751#3 334841515#1 334841515#3 -23403474#5 -23403474#4 309237290#9 309237290#10 309237290#11"/>
    </vehicle>
    <vehicle id="veh42" type="veh_passenger" depart="103.32" departLane="best">
        <route edges="-366416866#1 366416866#1 366416866#2 431945130#0 431945130#1 550544430#13 550544430#16 550544430#17 268569312#0 268569312#1 268569312#2 268569312#3 268569312#4 268569312#7 268569312#8 268569312#9 238526536 317385446#0 317385446#1 317385446#2 317385446#5 304408986#1 244618580#1 244618580#3 244618580#4 244618580#5 506339435#1 506339435#2 506339431#1 506339431#2 506339431#4 506339431#5 506339431#6 506322866 506322869#0 506322869#1 506322869#2 506322869#3 506322869#4 226831230#5 226831230#6 226831230#7 226831230#8 48740801#0 48740801#1 48740801#2 48740801#3 48740801#4 48740801#5 48740801#6 48740801#7 264410576 668037873#9 668037873#10 506316044#0 506316044#1 -304464523#1 -304464523#0 304464523#0"/>
    </vehicle>
    <vehicle id="veh43" type="veh_passenger" depart="105.78" departLane="best">
        <route edges="793186868#0 793186868#1 793186868#2 299836293#0 506316044#17 48776382#10 334814745#0 334814745#1 334814745#3 334814745#4 334814745#6 334814745#7 334814745#10 334814745#11 334814745#12 334814745#13 334814745#14 334814745#15 334814745#16 334814745#17 790658659 255431324#0 255431324#1 255431324#2 518977854 518977865#0 518977865#1 -506339439#8 -506339439#7 -506339439#6 -506339439#5 -506339439#4 -506339439#3 -506339439#2 -48776405#12 49153905#1 -362781447#1 362781444"/>
    </vehicle>
    <vehicle id="veh44" type="veh_passenger" depart="108.24" departLane="best">
        <route edges="551946341#0 255431333#17 244618580#1 244618580#3 244618580#4 244618580#5 506339435#1 506339435#2 506339431#1 506339431#2 506339431#4 506339431#5 506339431#6 506322866 311359939 48794898#0 48794898#1 48794898#2 348745651#1 348745651#2 506322871#0 506322871#1 506322871#2 506322871#3 506322871#4 506322871#5"/>
    </vehicle>
    <vehicle id="veh45" type="veh_passenger" depart="110.70" departLane="best">
        <route edges="-258816631#0 -232358536#3 -232358536#2 25878628#4 25878628#5 407206573 265741506 198645490#0 198645490#1 198645490#2 334841514#1 229070522#0 229070522#1 229070522#2 334841512#2 334841512#3 49153851#0 49153851#1 49153841#0 49153746#1 49153746#2 49153746#3"/>
    </vehicle>
    <vehicle id="veh47" type="veh_passenger" depart="115.62" departLane="best">
        <route edges="244618580#5 506339435#1 506339435#2 506339431#1 506339431#2 506339431#4 506339431#5 506339431#6 506322866 506322869#0 506322869#1 506322869#2 506322869#3 506322869#4 226831230#5 226831230#6 226831230#7 226831230#8 48740801#0 35928055#0 35928055#1 35928055#2 -304544028#4 48742278#7"/>
    </vehicle>
    <vehicle id="veh48" type="veh_passenger" depart="118.08" departLane="best">
        <route edges="-49730072#2 -49730072#1 -49730072#0 309237289#0 309237289#1 229887107#1 229887107#2 49153841#2 136814138#0 326969440#0 326969440#1 309157015#0 309157015#1 49153822#0 49153822#1 49153822#4 49153822#6 49153822#7 49153822#8 49153822#9 336696224#2 336696224#6 336696224#7 336696224#8 316690653"/>
    </vehicle>
    <vehicle id="veh49" type="veh_passenger" depart="120.54" departLane="best">
        <route edges="317385447#5 317385447#7 328716075 328716076 252494921#0 252494921#1 252494921#2 252494921#3 252494921#4 317385445 252657370#0 252657370#1 49153836#0 335596315#1 -309157014#1 309157015#0 309157015#1 309157015#2 244509930#0 244509930#2 244509930#3 790658659 255431324#0 255431324#1 255431324#2 518977852#1 518977852#2 518978933#0 518978933#1 518978933#2 518980176 518980187#0 518980187#1 518980187#2 48740803#8 48740803#9 -48768087#1 518981370#1 518981370#2"/>
    </vehicle>
    <vehicle id="veh50" type="veh_passenger" depart="123.00" departLane="best" departSpeed="max">
        <route edges="51420623#0 51420623#1 51420623#2 51420623#3 51420623#4 51420623#5 51420623#6 51420623#7 336696224#6 336696224#7 336696224#8 316690653 198645497 506339449#0 506339449#1 506339449#2 506339449#3 506339449#4 197466298 252398629#0 252398629#1"/>
    </vehicle>
    <vehicle id="veh51" type="veh_passenger" depart="125.46" departLane="best">
        <route edges="336846053#1 304481579 355749096#0 506339439#4 506339439#5 506339439#6 506339439#7 506339439#8 -518977865#1 -518977865#0 -518977854 518977856#0 518977856#1 518977856#2 309157013 -244509930#3 -244509930#2 -244509930#0 -309157015#2 -309157015#1 -309157015#0 309157014#1 353798159#1 353798159#2 252398633#1 198645491#1 198645491#2 198645491#3"/>
    </vehicle>
    <vehicle id="veh52" type="veh_passenger" depart="127.92" departLane="best">
        <route edges="518978931#3 518980173#0 518980173#1 518980173#2 518980173#3 518980173#4 518980173#5 518980173#6 255431335#0 255431335#1 255431335#2 255431333#0 255431333#1 255431333#2 255431333#4 255431333#5 255431333#6 255431333#7 506339431#1 506339431#2 506339431#4 506339431#5"/>
    </vehicle>
    <vehicle id="veh53" type="veh_passenger" depart="130.38" departLane="best">
        <route edges="255431326#1 255431326#2 255431326#3 255431326#4 255431326#5 255431326#6 255431326#7 255431326#8 255431324#0 255431324#1 255431324#2 518977852#1 518977852#2 518978933#0 518978933#1 518978933#2 518980176 518980187#0 518980187#1 518980187#2 518980187#3 518980187#4 226831230#2 226831230#3 226831230#5 226831230#6 226831230#7 226831230#8 48740801#0 35928055#0 35928055#1 35928055#2 35928055#3 35928055#4 48742261#1 48742261#2 464580660#0 464580660#1 245932669#1 48742254#0 48742254#1 48742276#6 48742278#1 48742278#2"/>
    </vehicle>
    <vehicle id="veh55" type="veh_passenger" depart="135.30" departLane="best">
        <route edges="49730012#2 49730012#3 49730012#4 49730012#5 49730012#6 49730012#7 312614634#0 334814747#1 335596315#1 -309157014#1 309157015#0 309157015#1 309157015#2 244509930#0 244509930#2 244509930#3 790658659 255431325 465196147#0 465196147#1 465196147#2 465196147#4 465196147#7 465196147#9 465196147#11 465196147#12 465196147#14 299836294 -793186868#2 -793186868#1 -793186868#0 -226831229#3 -226831229#2 -226831229#1 -226831229#0 226831245#0 506316044#7 375486265#2"/>
    </vehicle>
    <vehicle id="veh56" type="veh_passenger" depart="137.76" departLane="best" departSpeed="max">
        <route edges="49749049#0 49749049#1 138265878 229070402#0 229070402#1 229070402#2 265741506 198645490#0 198645490#1 198645490#2 334841514#1 231534776#3 231534776#5 231534776#6 231534776#9 252657372#2 -309157014#1 309157015#0 309157015#1 309157015#2 244509930#0 244509930#2 244509930#3 790658659 255431324#0 255431324#1 255431324#2 518977854 518977865#0 518977865#1 -506339439#8 -506339439#7 -506339439#6 -506339439#5 -506339439#4 -506339439#3 -506339439#2 -48776405#12 49153905#1 -362781447#1 362781447#1"/>
    </vehicle>
    <vehicle id="veh57" type="veh_passenger" depart="140.22" departLane="best">
        <route edges="-136814139#1 136814139#1 136814139#2 136814139#3 136814139#4 229070402#1 229070402#2 265741506 198645490#0 198645490#1 198645490#2 334841514#1 229070522#0 229070522#1 229070522#2 334841512#2 334841512#3 299836291 48810823 299836295#1 299836295#2 334814745#0 334814745#1 334814745#3 334814745#4 334814745#6 334814745#7 465196147#7 465196147#9 465196147#11 465196147#12 465196147#14 299836294 -793186868#2 -793186868#1 -793186868#0 -226831229#3 -226831229#2 -226831229#1 -226831229#0 -404179543#3 -404179543#2 -404179543#1 -404179543#0 -198735199 -264410579 264410578#0"/>
    </vehicle>
    <vehicle id="veh58" type="veh_passenger" depart="142.68" departLane="best">
        <route edges="-299836295#1 299836295#1 299836295#2 334814745#0 334814745#1 334814745#3 334814745#4 334814745#6 334814745#7 334814745#10 334814745#11 334814745#12 334814745#13 334814745#14 334814745#15 334814745#16 334814745#17 790658659 255431324#0 255431324#1 255431324#2 518977852#1 518977852#2 518978933#0 518978933#1 518978933#2 518980176 312929524 226831227 518980177#0"/>
    </vehicle>
    <vehicle id="veh59" type="veh_passenger" depart="145.14" departLane="best">
        <route edges="51420623#3 51420623#4 51420623#5 51420623#6 51420623#7 317385446#5 304408986#1 244618580#1 244618580#3 244618580#4 244618580#5 506339435#1 506339435#2 506339431#1 506339431#2 506339431#4 506339431#5 506339431#6 506322865#0 506322865#1 506322865#2 506322865#3 506322865#4 506322865#5 506322865#6"/>
    </vehicle>
    <vehicle id="veh60" type="veh_passenger" depart="147.60" departLane="best">
        <route edges="255431333#11 506339439#2 506339439#3 506339439#4 506339439#5 506339439#6 506339439#7 506339439#8 -518977865#1 -518977865#0 -518977854 518977852#1 518977852#2 518978933#0 518978933#1 518978933#2 518980176 312929524 226831244 518980182#0 518980182#1 518980182#2 518980182#5 518980182#6 518980182#7 518980182#9 518980182#10 518980182#12 518980182#13 518980182#14 518980182#15 518980182#16 -404179543#3 -404179543#2 -404179543#1"/>
    </vehicle>
    <vehicle id="veh61" type="veh_passenger" depart="150.06" departLane="best">
        <route edges="51420623#1 51420623#2 51420623#3 51420623#4 51420623#5 51420623#6 51420623#7 317385446#5 304408986#1 255431326#1 255431326#2 255431326#3 255431326#4 255431326#5 255431326#6 255431326#7 255431326#8 255431324#0 255431324#1 255431324#2 518977852#1 518977852#2 518978933#0 518978933#1 518978933#2 518980176 518980187#0"/>
    </vehicle>
    <vehicle id="veh62" type="veh_passenger" depart="152.52" departLane="best" departSpeed="max">
        <route edges="-48768115#4 -48768115#3 -48768115#2 -48768115#1 506322871#2 506322871#3 506322871#4 506322871#5 506322871#6 506322869#4 226831230#5 226831230#6 226831230#7 226831230#8 226831230#9 226831230#11 226831230#12 226831230#2 48740805 35928056#0 35928056#1 35928056#2 35928056#3 255431335#0 255431335#1 255431335#2 255431333#0 255431333#1 255431333#2 255431333#4 255431333#5 255431333#6 255431333#7 255431333#10 255431333#11 255431333#14 255431333#15 255431333#17 297603932#1 297603932#3 297603932#4 336696224#2 336696224#6"/>
    </vehicle>
    <vehicle id="veh63" type="veh_passenger" depart="154.98" departLane="best">
        <route edges="-431945134#0 431945134#0 431945134#1 431945134#2 324741384#0 324741384#1 324741384#2 506322863 255431333#0 255431333#1 255431333#2 255431333#4 255431333#5 255431333#6 255431333#7 255431333#10 255431333#11 255431333#14 255431333#15 255431333#17 244618580#1 49153907#1 49153907#4 49153907#5 49153892#4 49153903#2 49153903#3"/>
    </vehicle>
    <vehicle id="veh64" type="veh_passenger" depart="157.44" departLane="best">
        <route edges="49730061#0 49730061#1 49749057#1 49749057#2 49749057#3 309237289#0 309237289#1 229887107#1 229887107#2 49153841#2 383315936 49153826#1 198645497 506339449#0 506339449#1 506339449#2 506339449#3 292990053#1 51797050#0 51797050#1 51797050#2 51797050#3 268569312#8 268569312#9 238526536 317385446#0 317385446#1 -51420632#8"/>
    </vehicle>
    <vehicle id="veh65" type="veh_passenger" depart="159.90" departLane="best">