<?xml version="1.0" encoding="UTF-8"?>

<!-- generated on 12/04/20 23:27:31 by Eclipse SUMO duarouter Version 1.7.0
<configuration xmlns:xsi="http://www.w3.org/2001/XMLSchema-instance" xsi:noNamespaceSchemaLocation="http://sumo.dlr.de/xsd/duarouterConfiguration.xsd">

    <input>
        <net-file value="D:\github\sumo-learning\2020-12-04-23-27-19\osm.net.xml"/>
        <route-files value="D:\github\sumo-learning\2020-12-04-23-27-19\osm.passenger.trips.xml"/>
    </input>

    <output>
        <output-file value="routes.rou.xml"/>
        <alternatives-output value="routes.rou.alt.xml"/>
    </output>

    <time>
        <begin value="0"/>
        <end value="1000"/>
    </time>

    <report>
        <no-warnings value="true"/>
        <ignore-errors value="true"/>
        <no-step-log value="true"/>
    </report>

</configuration>
-->

<routes xmlns:xsi="http://www.w3.org/2001/XMLSchema-instance" xsi:noNamespaceSchemaLocation="http://sumo.dlr.de/xsd/routes_file.xsd">
    <vType id="veh_passenger" vClass="passenger"/>
    <vehicle id="veh0" type="veh_passenger" depart="0.00" departLane="best">
        <route edges="-755551646#1 755551646#1 755551646#2 43156728#2 120675240#0 120675240#3 120675240#4 -4611696#4 -4611696#3 -23755950#4 -23755950#1 -23755950#0 -66071366#3 4773029#0 4773029#1 4773029#2 28251222#0 28251222#1 169195795#4 169195795#5 169195795#6 169195795#7 114667396#0 -15977422#0 -195411605#0 -31313667#2 -31313667#1 -31313667#0 -492340367#0 -339201185 24243107#0 24243107#1 24243107#2 -6227658#2 -6227658#1 -6227658#0"/>
    </vehicle>
    <vehicle id="veh1" type="veh_passenger" depart="2.08" departLane="best" departSpeed="max">
        <route edges="43159545#0 43159545#1 60333309#1 840860363#0 840860363#1 606078065 156364553#1 606078066#0 72157172 61583424#0 61583424#1 534588621#0 534588621#1 4773465#1 4773465#2 4773465#3 490365295#0 490365295#1 -156364570#3 -156364570#1 -156364570#0 25294728 234463931#1 234463931#2 234463931#3 234463931#4 234463931#5 234463931#6 234463928#1 188914559 24990040 415280722"/>
    </vehicle>
    <vehicle id="veh2" type="veh_passenger" depart="4.16" departLane="best">
        <route edges="606078071#3 328920970 61583424#0 61583424#1 534588621#0 534588621#1 4773465#1 4773465#2 4773465#3 490365295#0 490365295#1 -156364570#3 -156364570#1 -156364570#0 25294728 234463931#1 234463931#2 234463931#3 234463931#4 234463931#5 -234463931#5"/>
    </vehicle>
    <vehicle id="veh3" type="veh_passenger" depart="6.25" departLane="best">
        <route edges="168942727#2 168942727#3 -62363401 -234463928#0 -234463931#5 -234463931#4 -234463931#3 -234463931#2 -234463931#1 -234463931#0 77348147 156364570#1 156364570#2 156364556#1 202157002#1 202157002#2 24913519#1 24913519#2 541763975 202156995#0 202156995#1 4067932#1 541763974 61584187#1 61584187#2 61584187#3 61584187#4 54048863 15971197#0 15971197#1 751602168 169195795#0 169195795#1 169195795#4 169195795#5 169195795#6 169195795#7 169195795#8 169195795#9 340498988#0 169999355#0 -11483007#2 -158023913#2"/>
    </vehicle>
    <vehicle id="veh4" type="veh_passenger" depart="8.33" departLane="best" departSpeed="max">
        <route edges="-4613293 -19002363#2 -19002363#1 4613292#0 24241797#0 24241797#3 23813206#0 23813206#1"/>
    </vehicle>
    <vehicle id="veh5" type="veh_passenger" depart="10.41" departLane="best">
        <route edges="-168940071#1 -168940071#0 -24243107#1 -24243107#0 -24243101 492340367#0 492340367#1 31313667#1 31313667#2 31313667#3 24243092#1 35578576#0 35578576#1 35578576#2 153698394#1 153698394#2 340498982#0 340498982#2 340498982#3 340498982#4 340498982#5 340498982#8 340498982#9 354528932 251884680 339201217#1 54048862#0 54048862#1 54048862#3 831694400 23013165#1 23013165#2 4611698#1 202156994#0 -534588621#1 -534588621#0 606078071#0 606078071#3 61583423#0 61583423#1 -751595930 -156364553#0 156364566#1 60333309#0 60333309#1 840860363#0 4612968#0 -4612968#0"/>
    </vehicle>
    <vehicle id="veh6" type="veh_passenger" depart="12.49" departLane="best" departSpeed="max">
        <route edges="309479676 4611726 82649618 819027709#0 81112790#1 23851930"/>
    </vehicle>
    <vehicle id="veh7" type="veh_passenger" depart="14.57" departLane="best">
        <route edges="-461526153 461526152#0 340498982#0 340498982#2 340498982#3 340498982#4 340498982#5 340498982#8 340498982#9 354528932 251884680 339201217#1 54048862#0 54048862#1 54048862#3 831694400 23013165#1 23013165#2 4611698#1 202156994#0 4773465#1 4773465#2 4773465#3 490365295#0 490365295#1 -156364570#3 -156364570#1 25294729#0 25294729#1"/>
    </vehicle>
    <vehicle id="veh8" type="veh_passenger" depart="16.66" departLane="best">
        <route edges="46140376#0 46140376#1 83517332#1 83517332#2 84960595 316746323#0 316746323#1 370359204#0 370359204#1 370359204#2 77348147 156364570#1 156364570#2 156364556#1 202157002#1 202157002#2 24913519#1 24913519#2 541763975 202156995#0 202156995#1 4067932#1 541763974 61584187#1 61584187#2 61584187#3 61584187#4 54048863 15971197#0 15971197#1 751602168 169195795#0 169195795#1 169195795#4 169195795#5 169195795#6 169195795#7 169195795#8 169195795#9 340498988#0 169999355#0 -111833185"/>
    </vehicle>
    <vehicle id="veh10" type="veh_passenger" depart="20.82" departLane="best">
        <route edges="120675240#0 120675240#3 120675240#4 -4611696#4 54781811#0 54781811#1 305153174 43230886 4611694#0 4611694#1 251884680 339201217#1 54048862#0 54048862#1 54048862#3 831694400 23013165#1 23013165#2 4611698#1 202156994#0 4773465#1 4773465#2 4773465#3 490365295#0 490365295#1 -156364570#3 -156364570#1 -156364570#0 -387892378 -370359204#1 -370359204#0 -743631784 -316746323#0 46140376#0 46140376#1 -84960597#1 -84960597#0 -36892597"/>
    </vehicle>
    <vehicle id="veh11" type="veh_passenger" depart="22.90" departLane="best">
        <route edges="819027709#0 606078065 156364553#1 606078066#0 72157172 61583424#0 61583424#1 534588621#0 534588621#1 24913519#1 24913519#2 541763975 202156995#0 202156995#1 4067932#1 541763974 61584187#1 61584187#2 61584187#3 61584187#4 54048863 15971197#0 15971197#1 751602168 169195795#0 169195795#1 169195795#4 169195795#5 169195795#6 169195795#7 169195795#8 169195795#9 340498988#0 169999355#0"/>
    </vehicle>
    <vehicle id="veh12" type="veh_passenger" depart="24.98" departLane="best">
        <route edges="-23813206#0 24990040 415280722 195401013#2 195401013#3 24914992#1 171826985#1 171826985#3 24913519#1 24913519#2 541763975 202156995#0 202156995#1 4067932#1 541763974 61584187#1 61584187#2 61584187#3 61584187#4 54048863 15971197#0 15971197#1 751602168 169195795#0 169195795#1 169195795#4 169195795#5 169195795#6 169195795#7 169195795#8 169195795#9 -66071373#3 -243854725#4 -24242882#0"/>
    </vehicle>
    <vehicle id="veh13" type="veh_passenger" depart="27.07" departLane="best" departSpeed="max">
        <route edges="523630405#0 24241797#0 24241797#3 24990040 415280722 195401013#2 195401013#3 24914992#1 171826985#1 171826985#3 -534588621#1 -534588621#0 606078071#0 606078071#3 61583423#0 61583423#1 -751595930 -156364553#0 60333311#1 60333311#2 289966097"/>
    </vehicle>
    <vehicle id="veh14" type="veh_passenger" depart="29.15" departLane="best">
        <route edges="4613292#0 24241797#0 24241797#3 24990040 415280722 195401013#2 195401013#3 24914992#1 171826985#1 171826985#3 24913519#1 24913519#2 541763975 202156995#0 202156995#1 4067932#1 541763974 61584187#1 61584187#2 61584187#3 61584187#4 54048863 15971197#0 15971197#1 751602168 169195795#0 169195795#1 169195795#4 169195795#5 169195795#6 169195795#7 169195795#8 169195795#9 340498988#0 169999355#0 -11483007#2 22972195#2 465376239 465376255#2 190447767 190447766#1 4402228"/>
    </vehicle>
    <vehicle id="veh15" type="veh_passenger" depart="31.23" departLane="best">
        <route edges="234463931#6 -234463928#0 -234463931#5 -234463931#4 -234463931#3 -234463931#2 -234463931#1 -234463931#0 -387892378 -370359204#1 -370359204#0 -743631784 -316746323#0 46140376#0 46140376#1 83517332#1 83517332#2"/>
    </vehicle>
    <vehicle id="veh16" type="veh_passenger" depart="33.31" departLane="best" departSpeed="max">
        <route edges="139877309 415280722 195401013#2 195401013#3 24914992#1 171826985#1 171826985#3 -534588621#1 -534588621#0 606078071#0 606078071#3 61583423#0 61583423#1 -751595930 -156364553#0 81112790#1 23851930"/>
    </vehicle>
    <vehicle id="veh17" type="veh_passenger" depart="35.39" departLane="best">
        <route edges="492340367#0 492340367#1 31313667#1 31313667#2 31313667#3 24243092#1 35578576#0 35578576#1 35578576#2 153698394#1 153698394#2 340498982#0 340498982#2 340498982#3 340498982#4 340498982#5 340498982#8 340498982#9 354528932 251884680 339201217#1 54048862#0 54048862#1 54048862#3 831694400 23013165#1 23013165#2 4611698#1 202156994#0 -534588621#1 -534588621#0 606078071#0 606078071#3 61583423#0 61583423#1 -751595930 -156364553#0 60333311#1 60333311#2 289966097"/>
    </vehicle>
    <vehicle id="veh18" type="veh_passenger" depart="37.48" departLane="best">
        <route edges="54048862#3 831694400 23013165#1 23013165#2 4611698#1 202156994#0 4773465#1 4773465#2 4773465#3 490365295#0 490365295#1 -156364570#3 -156364570#1 -156364570#0 25294728 234463931#1 234463931#2 234463931#3 234463931#4 234463931#5 234463931#6 234463928#1 188914559 24990040 415280722 195401013#2 195401013#3 24914992#1"/>
    </vehicle>
    <vehicle id="veh19" type="veh_passenger" depart="39.56" departLane="best" departSpeed="max">
        <route edges="342968607#0 461526153 169999355#0 -11483007#2 22972195#2 465376239 465376255#2 190447767 190447766#1 4402228 465376254 -4610472#2 -4610472#1 -4610472#0 -339201185 24243107#0 24243107#1 168940071#0 168940071#1 -168940071#1"/>
    </vehicle>
    <vehicle id="veh21" type="veh_passenger" depart="43.72" departLane="best">
        <route edges="-234463928#0 -234463931#5 -234463931#4 -234463931#3 -234463931#2 -234463931#1 -234463931#0 77348147 156364570#1 156364570#2 156364556#1 202157002#1 202157002#2 24913519#1 24913519#2 541763975 202156995#0 202156995#1 4067932#1 541763974 61584187#1 61584187#2 61584187#3 61584187#4 54048863 15971197#0 15971197#1 751602168 169195795#0 169195795#1 340498982#8 340498982#9 -4610524 -66071379#0"/>
    </vehicle>
    <vehicle id="veh22" type="veh_passenger" depart="45.81" departLane="best" departSpeed="max">
        <route edges="-23813206#2 -23813206#1 -23813206#0 24990040 415280722 195401013#2 195401013#3 24914992#1 171826985#1 171826985#3 -534588621#1 -534588621#0 606078071#0 606078071#3 -751595928#1 136571494#5"/>
    </vehicle>
    <vehicle id="veh23" type="veh_passenger" depart="47.89" departLane="best" departSpeed="max">
        <route edges="309479676 4611726 82649618 819027709#0 606078065 156364553#1 606078066#0 72157172 61583424#0 61583424#1 534588621#0 534588621#1 24913519#1 24913519#2 541763975 202156995#0 202156995#1 4067932#1 541763974 61584187#1 61584187#2 61584187#3 61584187#4 54048863 15971197#0 15971197#1 751602168 169195795#0 169195795#1 169195795#4 169195795#5 169195795#6 169195795#7 169195795#8 169195795#9 340498988#0 188386313#0"/>
    </vehicle>
    <vehicle id="veh24" type="veh_passenger" depart="49.97" departLane="best" departSpeed="max">
        <route edges="139877309 415280722 195401013#2 195401013#3 24914992#1 171826985#1 171826985#3 24913519#1 24913519#2 541763975 202156995#0 202156995#1 4067932#1 541763974 61584187#1 61584187#2 61584187#3 61584187#4 54048863 15971197#0 15971197#1 751602168 169195795#0 169195795#1 169195795#4 169195795#5 169195795#6 169195795#7 114667396#0 -15977422#0 -195411605#0 -31313667#2 -31313667#1 -31313667#0 -492340367#0"/>
    </vehicle>
    <vehicle id="veh25" type="veh_passenger" depart="52.05" departLane="best" departSpeed="max">
        <route edges="-437325048#1 -560370523 -437325047#5 -437325047#3 -437325047#2 -437325047#0 4610362#0 4610362#1 4610362#2 4610362#3 4610362#4 4610362#5 4610362#6 4610362#7 4610362#8 30721662#0 30721662#1 30721662#2 30721662#3 831659093#0 831659093#1 23809670#1 23809670#2 23809670#3 28016312#0 28016312#1 -156364570#3 -156364570#1 -156364570#0 25294728 234463931#1 234463931#2 234463931#3 234463931#4 234463931#5 234463931#6 234463928#1 55741054 -19002363#2 -19002363#1 19002363#1"/>
    </vehicle>
    <vehicle id="veh26" type="veh_passenger" depart="54.13" departLane="best">
        <route edges="840860363#0 840860363#1 606078065 156364553#1 606078066#0 72157172 61583424#0 61583424#1 534588621#0 534588621#1 24913519#1 24913519#2 541763975 202156995#0 202156995#1 4067932#1 541763974 61584187#1 61584187#2 61584187#3 61584187#4 54048863 15971197#0 15971197#1 751602168 169195795#0 169195795#1 169195795#4 169195795#5 169195795#6 169195795#7 114667396#0 -15977422#0 -195411605#0 -31313667#2 -31313667#1 31313667#1"/>
    </vehicle>
    <vehicle id="veh27" type="veh_passenger" depart="56.22" departLane="best">
        <route edges="24242882#0 24242882#1 24242882#2 24242882#3 4611706#0 4611706#1 66071366#0 66071366#1 66071366#2 -66071370 -43231842#3 43231842#3"/>
    </vehicle>
    <vehicle id="veh28" type="veh_passenger" depart="58.30" departLane="best" departSpeed="max">
        <route edges="523630405#0 24241797#0 24241797#3 24990040 415280722 195401013#2 195401013#3 24914992#1 171826985#1 171826985#3 24913519#1 24913519#2 541763975 202156995#0 202156995#1 4067932#1 541763974 61584187#1 61584187#2 61584187#3 61584187#4 54048863 15971197#0 15971197#1 751602168 169195795#0 169195795#1 -28251222#1 -28251222#0 -4773029#2 -4773029#1 -4773029#0 -66071366#1 -66071366#0 -4611706#1 -4611706#0 4611706#0"/>
    </vehicle>
    <vehicle id="veh30" type="veh_passenger" depart="62.46" departLane="best" departSpeed="max">
        <route edges="11549897 23851922#1 60333313 82654055#0 606078065 156364553#1 606078066#0 72157172 -328920970 -751595928#1 -136571494#4 -136571494#3 -136571494#2 -136571494#1 -136571494#0 -202817674#3 -202817674#2 120675240#0 120675240#3"/>
    </vehicle>
    <vehicle id="veh31" type="veh_passenger" depart="64.54" departLane="best" departSpeed="max">
        <route edges="-4613293 -55741054 -62363401 -234463928#0 -234463931#5 -234463931#4 -234463931#3 -234463931#2 -234463931#1 -234463931#0 77348147 156364570#1 156364570#2 156364556#1 202157002#1 202157002#2 72157174#1"/>
    </vehicle>
    <vehicle id="veh32" type="veh_passenger" depart="66.63" departLane="best">
        <route edges="60333311#1 60333311#2 -4612968#3 -4612968#2 -4612968#1 -4612968#0 840860363#1 606078065 156364553#1 606078066#0 72157172 61583424#0 61583424#1 534588621#0 534588621#1 24913519#1 24913519#2 541763975 202156995#0 202156995#1 4067932#1 541763974 61584187#1 61584187#2 61584187#3 61584187#4 54048863 15971197#0 15971197#1 751602168 169195795#0"/>
    </vehicle>
    <vehicle id="veh33" type="veh_passenger" depart="68.71" departLane="best" departSpeed="max">
        <route edges="309479676 4611726 82649618 819027709#0 606078065 156364553#1 606078066#0 72157172 61583424#0 61583424#1 534588621#0 534588621#1 24913519#1 24913519#2 541763975 202156995#0 202156995#1 4067932#1 541763974 61584187#1 61584187#2 61584187#3 61584187#4 54048863 15971197#0 15971197#1 751602168 169195795#0 169195795#1 169195795#4 169195795#5 169195795#6 169195795#7 169195795#8 169195795#9 340498988#0 169999355#0 -11483007#2 22972195#2 465376239 465376255#2 190447767 190447766#1 190447768#1"/>
    </vehicle>
    <vehicle id="veh34" type="veh_passenger" depart="70.79" departLane="best" departSpeed="max">
        <route edges="6227658#0 6227658#1 6227658#2 -24243107#2 -24243107#1 -24243107#0 -24243101 492340367#0 492340367#1 31313667#1 31313667#2 31313667#3 24243092#1 35578576#0 35578576#1 35578576#2 153698394#1 153698394#2 340498982#0 340498982#2 340498982#3 340498982#4 340498982#5 340498982#8 340498982#9 354528932 251884680 339201217#1 54048862#0 54048862#1 54048862#3 831694400 23013165#1 23013165#2 4611698#1 202156994#0"/>
    </vehicle>
    <vehicle id="veh35" type="veh_passenger" depart="72.87" departLane="best">
        <route edges="-66071366#1 66071366#1 66071366#2 23755950#0 23755950#1 23755950#2 4611696#1 4611696#4 4611696#5 -120675240#3 -120675240#2 -43156728#4 -43156728#0 -755551646#1 -755551646#0"/>
    </vehicle>
    <vehicle id="veh36" type="veh_passenger" depart="74.95" departLane="best" departSpeed="max">
        <route edges="24243052#0 465376240#0 195411604 11483007#0 -169999355#2 -461526153 -194069450#3 -194069450#0 4588217 874528353#0 -874528353#0"/>
    </vehicle>
    <vehicle id="veh37" type="veh_passenger" depart="77.04" departLane="best">
        <route edges="243854725#4 66071373#1 340498982#0 340498982#2 340498982#3 340498982#4 340498982#5 340498982#8 340498982#9 354528932 251884680 339201217#1 54048862#0 54048862#1 54048862#3 831694400 23013165#1 23013165#2 4611698#1 202156994#0 -534588621#1 -534588621#0 606078071#0 606078071#3 61583423#0 61583423#1 -751595930 -156364553#0 60333311#1 60333311#2"/>
    </vehicle>
    <vehicle id="veh38" type="veh_passenger" depart="79.12" departLane="best">
        <route edges="156364570#1 156364570#2 156364556#1 202157002#1 202157002#2 24913519#1 24913519#2 541763975 202156995#0 202156995#1 4067932#1 541763974 61584187#1 61584187#2 61584187#3 61584187#4 54048863 15971197#0 15971197#1 751602168 169195795#0 169195795#1 169195795#4 169195795#5 169195795#6 169195795#7 114667396#0 -15977422#0 -195411605#0 -31313667#2 -31313667#1 -31313667#0 -492340367#0 -339201185 24243107#0 24243107#1 24243107#2 -6227658#2 -6227658#1 -6227658#0"/>
    </vehicle>
    <vehicle id="veh39" type="veh_passenger" depart="81.20" departLane="best">
        <route edges="84960597#0 84960597#1 83517332#1 83517332#2 84960595 316746323#0 316746323#1 168942727#0 168942727#1 168942727#2 168942727#3 188914559 23813206#0 23813206#1 23813206#2"/>
    </vehicle>
    <vehicle id="veh40" type="veh_passenger" depart="83.28" departLane="best">
        <route edges="-23809670#2 23809670#2 23809670#3 28016312#0 28016312#1 -156364570#3 -156364570#1 -156364570#0 -387892378 -370359204#1 -370359204#0 168942727#0 -168942727#0"/>
    </vehicle>
    <vehicle id="veh41" type="veh_passenger" depart="85.36" departLane="best">
        <route edges="-24243101 492340367#0 492340367#1 31313667#1 31313667#2 31313667#3 24243092#1 35578576#0 35578576#1 35578576#2 153698394#1 153698394#2 340498982#0 340498982#2 340498982#3 340498982#4 340498982#5 340498982#8 340498982#9 354528932 251884680 339201217#1 54048862#0 54048862#1 54048862#3 831694400 23013165#1 23013165#2 4611698#1 202156994#0 -534588621#1 -534588621#0 606078071#0 606078071#3 61583423#0 61583423#1 -751595930 -156364553#0 60333311#1 60333311#2 289966097"/>
    </vehicle>
    <vehicle id="veh42" type="veh_passenger" depart="87.45" departLane="best">
        <route edges="4611696#4 -4611696#4 54781811#0 54781811#1 305153174 43230886 4611694#0 4611694#1 251884680 339201217#1 54048862#0 54048862#1 54048862#3 831694400 23013165#1 23013165#2 4611698#1 202156994#0 72157174#1 171826984#2 195401006 195401017#5"/>
    </vehicle>
    <vehicle id="veh43" type="veh_passenger" depart="89.53" departLane="best" departSpeed="max">
        <route edges="-202156991#2 -202156991#1 -202156991#0 23121445#0 23121445#1 23121445#2 23121445#3 23121445#4 23121445#5 831694400 23013165#1 23013165#2 4611698#1 202156994#0 4773465#1 4773465#2 4773465#3 490365295#0 490365295#1 -156364570#3 -156364570#1 -156364570#0 25294728 234463931#1 234463931#2 234463931#3 234463931#4 234463931#5 234463931#6 234463928#1 55741054 19002363#3"/>
    </vehicle>
    <vehicle id="veh44" type="veh_passenger" depart="91.61" departLane="best">
        <route edges="840860363#1 81112790#1 23851930"/>
    </vehicle>
    <vehicle id="veh45" type="veh_passenger" depart="93.69" departLane="best">
        <route edges="831694400 23013165#1 23013165#2 4611698#1 202156994#0 4773465#1 4773465#2 4773465#3 490365295#0 490365295#1 -156364570#3 -156364570#1 -156364570#0 -387892378 -370359204#1 -370359204#0 -743631784 -316746323#0 -84960595 183415643 46140382 30721660#1 30721660#2 30721660#3 30721660#4 30721660#5 437325047#0 437325047#2 437325047#3 51167934#1 51167934#2 51167934#4"/>
    </vehicle>
    <vehicle id="veh46" type="veh_passenger" depart="95.77" departLane="best">
        <route edges="-136571494#3 136571494#3 136571494#4 136571494#5 328920970 61583424#0 61583424#1 534588621#0 534588621#1 24913519#1 24913519#2 541763975 202156995#0 202156995#1 4067932#1 541763974 61584187#1 61584187#2 61584187#3 61584187#4 54048863 15971197#0 15971197#1 751602168 169195795#0 169195795#1 169195795#4 169195795#5 169195795#6 169195795#7 114667396#0 -15977422#0 -195411605#0 -31313667#2 -31313667#1 -31313667#0 -492340367#0 -339201185 24243107#0 24243107#1 24243107#2 437325054#0 437325054#2"/>
    </vehicle>
    <vehicle id="veh47" type="veh_passenger" depart="97.86" departLane="best">
        <route edges="339201217#1 54048862#0 54048862#1 54048862#3 831694400 23013165#1 23013165#2 4611698#1 202156994#0 -534588621#1 -534588621#0 606078071#0 606078071#3 61583423#0 61583423#1 -751595930 -156364553#0 81112790#1 23851930"/>
    </vehicle>
    <vehicle id="veh48" type="veh_passenger" depart="99.94" departLane="best">
        <route edges="-66071370 66071370 -66071366#3 4773029#0 4773029#1 4773029#2 28251222#0 28251222#1 169195795#4 169195795#5 169195795#6 169195795#7 114667396#0 -15977422#0 -195411605#0 -31313667#2 31313667#2"/>
    </vehicle>
    <vehicle id="veh49" type="veh_passenger" depart="102.02" departLane="best">
        <route edges="-24243107#1 -24243107#0 -24243101 492340367#0 492340367#1 31313667#1 31313667#2 31313667#3 24243092#1 35578576#0 35578576#1 35578576#2 153698394#1 153698394#2 340498982#0 340498982#2 340498982#3 340498982#4 340498982#5 340498982#8 340498982#9 354528932 251884680 339201217#1 54048862#0 54048862#1 54048862#3 831694400 23013165#1 23013165#2 4611698#1 202156994#0 72157174#1 171826984#2 195401006 195401017#5"/>
    </vehicle>
    <vehicle id="veh50" type="veh_passenger" depart="104.10" departLane="best">
        <route edges="171826985#1 171826985#3 -534588621#1 -534588621#0 606078071#0 606078071#3 328920970 751595929#0 751595929#1 194962375#1 194962375#2 -128396190#4 -128396190#3 -128396190#2 -128396190#1 4611726 82649618 819027709#0"/>
    </vehicle>
    <vehicle id="veh51" type="veh_passenger" depart="106.18" departLane="best">
        <route edges="60333311#1 60333311#2 -4612968#3 -4612968#2 -4612968#1 -4612968#0 840860363#1 606078065 156364553#1 606078066#0 72157172 61583424#0 61583424#1 534588621#0 534588621#1 4773465#1 4773465#2 4773465#3 490365295#0 490365295#1 -156364570#3 -156364570#1 -156364570#0 -387892378 -370359204#1 -370359204#0 -743631784 -316746323#0 46140376#0 46140376#1 -84960597#1 -84960597#0 11103418"/>
    </vehicle>
    <vehicle id="veh52" type="veh_passenger" depart="108.27" departLane="best">
        <route edges="202156994#0 4773465#1 4773465#2 4773465#3 490365295#0 490365295#1 -156364570#3 -156364570#1 -156364570#0 -387892378 -370359204#1 -370359204#0 -743631784 -316746323#0 -84960595 183415643 46140382 30721660#1 30721660#2 30721660#3 30721660#4 30721660#5 437325047#0 437325047#2 -437325047#2"/>
    </vehicle>
    <vehicle id="veh53" type="veh_passenger" depart="110.35" departLane="best" departSpeed="max">
        <route edges="6227658#0 6227658#1 6227658#2 -24243107#2 -24243107#1 -24243107#0 -24243101 492340367#0 492340367#1 31313667#1 31313667#2 31313667#3 24243092#1 35578576#0 35578576#1 35578576#2 153698394#1 153698394#2 340498982#0 340498982#2 340498982#3 340498982#4 340498982#5 340498982#8 340498982#9 354528932 251884680 339201217#1 54048862#0 54048862#1 54048862#3 831694400 23013165#1 23013165#2 4611698#1 202156994#0 -534588621#1 -534588621#0 534588621#0"/>
    </vehicle>
    <vehicle id="veh54" type="veh_passenger" depart="112.43" departLane="best" departSpeed="max">
        <route edges="111833185 -4412868 153698394#2 340498982#0 340498982#2 340498982#3 340498982#4 340498982#5 340498982#8 340498982#9 354528932 251884680 339201217#1 54048862#0 54048862#1 54048862#3 831694400 23013165#1 23013165#2 4611698#1 202156994#0 4773465#1 4773465#2 4773465#3 490365295#0 490365295#1 -156364570#3 -156364570#1 -156364570#0 -387892378 -370359204#1 -370359204#0 -743631784 -316746323#0 -84960595 183415643 46140382 30721660#1 30721660#2 30721660#3 30721660#4 30721660#5 4610362#0 4610362#1 4610362#2 4610362#3 4610362#4 4610362#5 4610362#6 4610362#7 4610362#8 30721662#0 30721662#1 30721662#2 30721662#3"/>
    </vehicle>
    <vehicle id="veh55" type="veh_passenger" depart="114.51" departLane="best">
        <route edges="28016312#0 28016312#1 -156364570#3 -156364570#1 -156364570#0 -387892378 -370359204#1 -370359204#0 -743631784 -316746323#0 46140376#0 46140376#1 -84960597#1 -84960597#0 -36892597"/>
    </vehicle>
    <vehicle id="veh56" type="veh_passenger" depart="116.59" departLane="best">
        <route edges="454285423#1 -454285423#1 -454285423#0 4610351#0 4610351#1 30721660#4 30721660#5 4610362#0 4610362#1 4610362#2 4610362#3 4610362#4 4610362#5 4610362#6 4610362#7 4610362#8 30721662#0 30721662#1 30721662#2 30721662#3 831659093#0 831659093#1 23809670#1 23809670#2 23809670#3 28016312#0 28016312#1 156364556#1 202157002#1 202157002#2 -534588621#1 -534588621#0 606078071#0 606078071#3 61583423#0 61583423#1 -751595930 -156364553#0 81112790#1 23851930"/>
    </vehicle>
    <vehicle id="veh57" type="veh_passenger" depart="118.68" departLane="best">
        <route edges="4610472#1 -195397561#6 -195397561#3 -195397561#1 -195397561#0 35578576#0 35578576#1 35578576#2 153698394#1 153698394#2 340498982#0 340498982#2 340498982#3 340498982#4 340498982#5 340498982#8 340498982#9 354528932 251884680 339201217#1 54048862#0 54048862#1 54048862#3 831694400 23013165#1 23013165#2 4611698#1 202156994#0 -534588621#1 -534588621#0 606078071#0 606078071#3 61583423#0 61583423#1 -751595930 -156364553#0 81112790#1 23851930"/>
    </vehicle>
    <vehicle id="veh58" type="veh_passenger" depart="120.76" departLane="best">
        <route edges="-11483007#2 83517336#0 83517336#2 153698394#1 153698394#2 340498982#0 340498982#2 340498982#3 340498982#4 340498982#5 169195795#4 169195795#5"/>
    </vehicle>
    <vehicle id="veh59" type="veh_passenger" depart="122.84" departLane="best">
        <route edges="-156364570#3 156364570#2 156364556#1 202157002#1 202157002#2 24913519#1 24913519#2 541763975 202156995#0 202156995#1 4067932#1 541763974 61584187#1 61584187#2 61584187#3 61584187#4 54048863 15971197#0 15971197#1 751602168 169195795#0 169195795#1 169195795#4 169195795#5 169195795#6 169195795#7 114667396#0 -15977422#0 -195411605#0 -31313667#2 -31313667#1 -31313667#0 -492340367#0 -339201185 24243107#0 24243107#1 24243107#2 -6227658#2 6227658#2"/>
    </vehicle>
    <vehicle id="veh60" type="veh_passenger" depart="124.92" departLane="best">
        <route edges="60333311#2 -4612968#3 -4612968#2 -4612968#1 -4612968#0 840860363#1 606078065 156364553#1 606078066#0 72157172 61583424#0 61583424#1 534588621#0 534588621#1 24913519#1 24913519#2 541763975 202156995#0 202156995#1 4067932#1 541763974 61584187#1 61584187#2 61584187#3 61584187#4 54048863 15971197#0 15971197#1 751602168 169195795#0 169195795#1 169195795#4 169195795#5 169195795#6 169195795#7 169195795#8 169195795#9 340498988#0 169999355#0 -11483007#2 22972195#2 465376239 465376255#2 190447767 190447766#1 190447768#1 195411602#1 465376240#0"/>
    </vehicle>
    <vehicle id="veh61" type="veh_passenger" depart="127.01" departLane="best" departSpeed="max">
        <route edges="11549897 23851922#1 60333313 82654055#0 606078065 156364553#1 606078066#0 72157172 61583424#0 61583424#1 534588621#0 534588621#1 4773465#1 4773465#2 4773465#3 490365295#0 490365295#1 -156364570#3 -156364570#1 -156364570#0 25294728 234463931#1 234463931#2 234463931#3 234463931#4 234463931#5 234463931#6 234463928#1 55741054 19002363#3 19002363#4 19002363#6 19002363#7 -19002363#9"/>
    </vehicle>
    <vehicle id="veh62" type="veh_passenger" depart="129.09" departLane="best">
        <route edges="-234463931#5 -234463931#4 -234463931#3 -234463931#2 -234463931#1 -234463931#0 77348147 156364570#1 156364570#2 156364556#1 202157002#1 202157002#2 24913519#1 24913519#2 541763975 202156995#0 202156995#1 4067932#1 -23121445#5 -23121445#4 23121445#4"/>
    </vehicle>
    <vehicle id="veh63" type="veh_passenger" depart="131.17" departLane="best" departSpeed="max">
        <route edges="-202156991#2 -202156991#1 -202156991#0 23121445#0 23121445#1 23121445#2 23121445#3 23121445#4 23121445#5 831694400 23013165#1 23013165#2 4611698#1 202156994#0 -534588621#1 -534588621#0 606078071#0 606078071#3 -751595928#1 -136571494#4 -136571494#3 -136571494#2 -136571494#1 -136571494#0 -202817674#3 -202817674#2 -43156728#4 -43156728#0 4610607"/>
    </vehicle>
    <vehicle id="veh64" type="veh_passenger" depart="133.25" departLane="best">
        <route edges="4610351#0 4610351#1 30721660#4 30721660#5 4610362#0 4610362#1 4610362#2 4610362#3 4610362#4 4610362#5 4610362#6 4610362#7 4610362#8 30721662#0 30721662#1 30721662#2 30721662#3 831659093#0 831659093#1 23809670#1 23809670#2 23809670#3 28016312#0 28016312#1 -156364570#3 -156364570#1 25294729#0 -25294729#0"/>
    </vehicle>
    <vehicle id="veh65" type="veh_passenger" depart="135.33" departLane="best">
        <route edges="195397561#5 -195397561#6 -195397561#3 -195397561#1 -195397561#0 35578576#0 35578576#1 35578576#2 153698394#1 153698394#2 340498982#0 340498982#2 340498982#3 340498982#4 340498982#5 340498982#8 340498982#9 354528932 251884680 339201217#1 54048862#0 54048862#1 54048862#3 831694400 23013165#1 23013165#2 4611698#1 202156994#0 -534588621#1 -534588621#0 606078071#0 606078071#3 61583423#0 61583423#1 -751595930 -156364553#0 81112790#1 23851930"/>
    </vehicle>
    <vehicle id="veh66" type="veh_passenger" depart="137.42" departLane="best">
        <route edges="-66071366#1 66071366#1 66071366#2 23755950#0 23755950#1 23755950#2 4611696#1 54781811#0 54781811#1 305153174 43230886 4611694#0 4611694#1 251884680 339201217#1 54048862#0"/>
    </vehicle>