<?xml version="1.0" encoding="UTF-8"?>

<!-- generated on 12/10/20 09:07:15 by Eclipse SUMO duarouter Version 1.7.0
<configuration xmlns:xsi="http://www.w3.org/2001/XMLSchema-instance" xsi:noNamespaceSchemaLocation="http://sumo.dlr.de/xsd/duarouterConfiguration.xsd">

    <input>
        <net-file value="D:\github\sumo-learning\2020-12-10-09-07-09\osm.net.xml"/>
        <route-files value="D:\github\sumo-learning\2020-12-10-09-07-09\osm.passenger.trips.xml"/>
    </input>

    <output>
        <output-file value="routes.rou.xml"/>
        <alternatives-output value="routes.rou.alt.xml"/>
    </output>

    <time>
        <begin value="0"/>
        <end value="3600"/>
    </time>

    <report>
        <no-warnings value="true"/>
        <ignore-errors value="true"/>
        <no-step-log value="true"/>
    </report>

</configuration>
-->

<routes xmlns:xsi="http://www.w3.org/2001/XMLSchema-instance" xsi:noNamespaceSchemaLocation="http://sumo.dlr.de/xsd/routes_file.xsd">
    <vType id="veh_passenger" vClass="passenger"/>
    <vehicle id="veh0" type="veh_passenger" depart="0.00" departLane="best" departSpeed="max">
        <route edges="374332385#0 374332385#2 374332385#5 374332385#6 291325260#1 51268714#0 51268714#1 51268714#2 51268714#3 451928560#0 451928560#1 155811045#0 155811045#1 -374332362#6 -374332362#5 -374332362#4 -374332362#3 -374332362#2"/>
    </vehicle>
    <vehicle id="veh3" type="veh_passenger" depart="3.15" departLane="best" departSpeed="max">
        <route edges="264859962#0 264859962#1 264859962#2 264859962#3 291325260#1 51268714#0 51268714#1 51268714#2 51268714#3 451928560#0 451928560#1 155811045#0 155811045#1 -374332362#6 -374332362#5 -374332362#4 -374332362#3 -374332362#2"/>
    </vehicle>
    <vehicle id="veh4" type="veh_passenger" depart="4.20" departLane="best" departSpeed="max">
        <route edges="-824669534 -312715996#3 -312715996#2 -312715996#1 -312715996#0 248976980#10 291325260#1 291325260#2 291325260#5 291325260#6"/>
    </vehicle>
    <vehicle id="veh5" type="veh_passenger" depart="5.25" departLane="best" departSpeed="max">
        <route edges="-311319110#10 -311319110#8 -311319110#7 -311319110#6 -311319110#5 -311319110#4 -311319110#3 -311319110#2 -311319110#1 -310620433#4 -310620433#3 -310620433#2 -310620433#1 50160154#9 -406125538#12 -406125538#11 -406125538#10 -406125538#9 -406125538#8 -406125538#7 -406125538#4 -406125538#3 -406125538#2 -406125538#1 -406125538#0 -49788394#3 -593840519#3"/>
    </vehicle>
    <vehicle id="veh6" type="veh_passenger" depart="6.30" departLane="best">
        <route edges="155804118#0 155804118#1 374332362#3 374332362#4 374332362#5 374332362#6 375408688#0 506316030#1 506316030#2 506316030#3 506316030#5 506316030#6 268564485#2 268564485#3 268564485#4 268564485#7 268564485#8 310620432#0"/>
    </vehicle>
    <vehicle id="veh7" type="veh_passenger" depart="7.35" departLane="best" departSpeed="max">
        <route edges="506599420#0 506599420#3 506599420#4 506599420#5 506599420#6 506599420#7 506599420#8 506599420#9 248976980#7 312715996#0 312715996#1 312715996#2 312715996#3 312715996#4 312715996#5 312715996#7 312715996#8 312715996#9 311346862#1 311346862#2 311346862#3 -311346862#3"/>
    </vehicle>
    <vehicle id="veh8" type="veh_passenger" depart="8.40" departLane="best" departSpeed="max">
        <route edges="506599420#0 506599420#3 506599420#4 506599420#5 506599420#6 506599420#7 506599420#8 506599420#9 248976980#7 248976980#10 291325259#1 291325259#4 291325259#5 -375408688#0 -374332362#6 -374332362#5 374332387#0 374332387#1 374332387#2 374332387#3 374332387#5 374332387#6"/>
    </vehicle>
    <vehicle id="veh9" type="veh_passenger" depart="9.45" departLane="best" departSpeed="max">
        <route edges="248976980#0 248976980#4 -506599420#9 -506599420#8 -506599420#7 -506599420#6 -506599420#5 -506599420#4 -506599420#3 -506599420#0"/>
    </vehicle>
    <vehicle id="veh10" type="veh_passenger" depart="10.50" departLane="best" departSpeed="max">
        <route edges="593840519#0 49788394#3 406125538#0 406125538#1 406125538#2 406125538#3 406125538#4 268564485#14"/>
    </vehicle>
    <vehicle id="veh11" type="veh_passenger" depart="11.55" departLane="best">
        <route edges="-406125538#12 -406125538#11 -406125538#10 -406125538#9 -406125538#8 -406125538#7 -406125538#4 -406125538#3 -406125538#2 -406125538#1 -406125538#0 -49788394#3 -49788394#0"/>
    </vehicle>
    <vehicle id="veh13" type="veh_passenger" depart="13.65" departLane="best" departSpeed="max">
        <route edges="506599420#0 593840519#9 593840519#10 593840519#11 593840519#12 593840519#13 401376480#3 401376480#4"/>
    </vehicle>
    <vehicle id="veh14" type="veh_passenger" depart="14.70" departLane="best" departSpeed="max">
        <route edges="374332385#0 374332385#2 374332385#5 374332385#6 291325259#1 50160154#2 50160154#3 -312715996#5 -312715996#4 824669534"/>
    </vehicle>
    <vehicle id="veh15" type="veh_passenger" depart="15.75" departLane="best" departSpeed="max">
        <route edges="248976980#0 248976980#4 248976980#7 248976980#10 291325260#1 291325260#2 291325260#5 291325260#6"/>
    </vehicle>
    <vehicle id="veh16" type="veh_passenger" depart="16.80" departLane="best" departSpeed="max">
        <route edges="506599420#0 506599420#3 506599420#4 506599420#5 506599420#6 506599420#7 506599420#8 506599420#9 310620432#0 310620432#1 310620432#2 310620432#3 310620432#4 310620433#1 310620433#2 310620433#3 310620433#4 311319110#1 311319110#2 311319110#3 311319110#4 311319110#5 311319110#6 311319110#7 311319110#8 311319110#9"/>
    </vehicle>
    <vehicle id="veh20" type="veh_passenger" depart="21.00" departLane="best" departSpeed="max">
        <route edges="-437870662#4 -437870662#2 -406125538#17 -406125538#16 -406125538#15 -406125538#14 -406125538#13 -406125538#12 -406125538#11 -406125538#10 -406125538#9 -406125538#8 -406125538#7 268564485#14"/>
    </vehicle>
    <vehicle id="veh21" type="veh_passenger" depart="22.05" departLane="best" departSpeed="max">
        <route edges="374332385#0 374332385#2 374332385#5 374332385#6 268564485#2 268564485#3 268564485#4 268564485#7 268564485#8 268564485#11 268564485#14"/>
    </vehicle>
    <vehicle id="veh22" type="veh_passenger" depart="23.10" departLane="best" departSpeed="max">
        <route edges="248976980#0 -406125538#4 -406125538#3 -406125538#2 -406125538#1 -406125538#0 -49788394#3 -593840519#3"/>
    </vehicle>
    <vehicle id="veh24" type="veh_passenger" depart="25.20" departLane="best" departSpeed="max">
        <route edges="374332385#0 374332385#2 374332385#5 374332385#6 268564485#2 268564485#3 268564485#4 268564485#7 268564485#8 310620432#0 310620432#1 310620432#2 310620432#3 310620432#4 310620433#1 310620433#2 310620433#3 310620433#4 311319110#1 311319110#2 311319110#3 311319110#4 311319110#5 311319110#6 311319110#7 311319110#8 311319110#9"/>
    </vehicle>
    <vehicle id="veh25" type="veh_passenger" depart="26.25" departLane="best" departSpeed="max">
        <route edges="-50160154#11 -50160154#9 -50160154#6 -50160154#5 -50160154#3 -50160154#2 506316030#5 506316030#6 401376480#1 401376480#2 401376480#3 401376480#4"/>
    </vehicle>
    <vehicle id="veh31" type="veh_passenger" depart="32.55" departLane="best" departSpeed="max">
        <route edges="374332385#0 374332385#2 374332385#5 374332385#6 268564485#2 268564485#3 268564485#4 268564485#7 268564485#8 268564485#11 268564485#14"/>
    </vehicle>
    <vehicle id="veh33" type="veh_passenger" depart="34.65" departLane="best" departSpeed="max">
        <route edges="374332385#0 374332385#2 374332385#5 374332385#6 268564485#2 268564485#3 268564485#4 268564485#7 268564485#8 268564485#11 268564485#14"/>
    </vehicle>
    <vehicle id="veh34" type="veh_passenger" depart="35.70" departLane="best" departSpeed="max">
        <route edges="374332385#0 374332385#2 374332385#5 374332385#6 291325259#1 291325259#4 291325259#5 375408677#1 506316032#0"/>
    </vehicle>
    <vehicle id="veh37" type="veh_passenger" depart="38.85" departLane="best">
        <route edges="-375408688#0 -374332362#6 -374332362#5 -374332362#4 -374332362#3 -374332362#2"/>
    </vehicle>
    <vehicle id="veh38" type="veh_passenger" depart="39.90" departLane="best" departSpeed="max">
        <route edges="-437870662#4 -437870662#2 -437870662#1 311319110#1 311319110#2 311319110#3 311319110#4 311319110#5 311319110#6 311319110#7 311319110#8 311319110#9"/>
    </vehicle>
    <vehicle id="veh39" type="veh_passenger" depart="40.95" departLane="best" departSpeed="max">
        <route edges="506316039#0 506316033#0 506316030#1 506316030#2 506316030#3 506316030#5 506316030#6 401376480#1 401376480#2 401376480#3 50914316#0 50914316#1 269542356"/>
    </vehicle>
    <vehicle id="veh40" type="veh_passenger" depart="42.00" departLane="best" departSpeed="max">
        <route edges="-311346862#7 -311346862#6 -311346862#5 -311346862#4 -311346862#3 -311346862#2 -311346862#1 -312715996#9 -312715996#8 -312715996#7 50160154#5 50160154#6 50160154#9 -406125538#12 -406125538#11 -406125538#10 -406125538#9 -406125538#8 -406125538#7 268564485#14"/>
    </vehicle>
    <vehicle id="veh43" type="veh_passenger" depart="45.15" departLane="best" departSpeed="max">
        <route edges="-311319110#10 -311319110#8 -311319110#7 -311319110#6 -311319110#5 -311319110#4 -311319110#3 -311319110#2 -311319110#1 -310620433#4 -310620433#3 -310620433#2 -310620433#1 -50160154#6 -50160154#5 -50160154#3 -50160154#2 506316030#5 506316030#6 401376480#1"/>
    </vehicle>
    <vehicle id="veh44" type="veh_passenger" depart="46.20" departLane="best" departSpeed="max">
        <route edges="451928555#0 451928555#1 155804118#1 374332362#3 374332362#4 374332362#5 374332362#6 375408688#0 506316030#1 506316030#2 506316030#3 506316030#5 506316030#6 291325260#1 291325260#2 291325260#5 291325260#6"/>
    </vehicle>
    <vehicle id="veh45" type="veh_passenger" depart="47.25" departLane="best" departSpeed="max">
        <route edges="248976980#0 248976980#4 248976980#7 312715996#0 312715996#1 312715996#2 312715996#3 312715996#4 312715996#5 312715996#7 312715996#8 312715996#9 311346862#1 311346862#2 311346862#3 311346862#4 311346862#5 311346862#6 311346862#7"/>
    </vehicle>
    <vehicle id="veh46" type="veh_passenger" depart="48.30" departLane="best" departSpeed="max">
        <route edges="-437870662#4 -437870662#2 -406125538#17 -406125538#16 -406125538#15 -406125538#14 -406125538#13 -406125538#12 -406125538#11 -406125538#10 -406125538#9 -406125538#8 -406125538#7 -406125538#4 -406125538#3 -406125538#2 -406125538#1 -406125538#0 -49788394#3 593840519#6 593840519#9 593840519#10 593840519#11 593840519#12 593840519#13 401376480#3 50914316#0 50914316#1 269542356"/>
    </vehicle>
    <vehicle id="veh49" type="veh_passenger" depart="51.45" departLane="best" departSpeed="max">
        <route edges="374332362#0 374332362#3 374332362#4 374332362#5 374332362#6 375408688#0 506316030#1 506316030#2 506316030#3 506316030#5 506316030#6 401376480#1 401376480#2 -593840519#13 -593840519#12 -593840519#11 -593840519#10 -593840519#9 -593840519#6 -593840519#3"/>
    </vehicle>
    <vehicle id="veh50" type="veh_passenger" depart="52.50" departLane="best" departSpeed="max">
        <route edges="51268713#0 51268708#2 51268708#3 451928557#0 451928557#1 506316030#6 268564485#2 268564485#3 268564485#4 268564485#7 268564485#8 268564485#11 406125538#7 406125538#8 406125538#9 406125538#10 50160155"/>
    </vehicle>
    <vehicle id="veh51" type="veh_passenger" depart="53.55" departLane="best" departSpeed="max">
        <route edges="248976980#0 248976980#4 248976980#7 312715996#0 312715996#1 312715996#2 312715996#3 312715996#4 312715996#5 312715996#7 312715996#8 312715996#9 311346862#1 311346862#2 311346862#3 311346862#4 311346862#5 311346862#6 311346862#7"/>
    </vehicle>
    <vehicle id="veh52" type="veh_passenger" depart="54.60" departLane="best" departSpeed="max">
        <route edges="374332385#0 374332385#2 374332385#5 374332385#6 268564485#2 268564485#3 268564485#4 268564485#7 268564485#8 -506599420#9 -506599420#8 -506599420#7 -506599420#6 -506599420#5 -506599420#4 -506599420#3 -506599420#0"/>
    </vehicle>
    <vehicle id="veh53" type="veh_passenger" depart="55.65" departLane="best">
        <route edges="50160154#9 -406125538#12 -406125538#11 -406125538#10 -406125538#9 -406125538#8 -406125538#7 248976980#4 248976980#7 248976980#10 291325260#1 291325260#2 291325260#5 291325260#6"/>
    </vehicle>
    <vehicle id="veh54" type="veh_passenger" depart="56.70" departLane="best" departSpeed="max">
        <route edges="506316039#0 506316033#0 506316030#1 506316030#2 506316030#3 506316030#5 506316030#6 291325260#1 291325260#2 291325260#5 291325260#6"/>
    </vehicle>
    <vehicle id="veh55" type="veh_passenger" depart="57.75" departLane="best">
        <route edges="-310620433#2 -310620433#1 50160154#9 -406125538#12 -406125538#11 -406125538#10 -406125538#9 -406125538#8 -406125538#7 268564485#14"/>
    </vehicle>
    <vehicle id="veh58" type="veh_passenger" depart="60.90" departLane="best" departSpeed="max">
        <route edges="248976980#0 406125538#7 406125538#8 406125538#9 406125538#10 406125538#11 406125538#12 406125538#13 406125538#14 406125538#15 406125538#16 406125538#17 -437870662#1"/>
    </vehicle>
    <vehicle id="veh59" type="veh_passenger" depart="61.95" departLane="best">
        <route edges="-317388747#1 -312715996#9 -312715996#8 -312715996#7 -312715996#5 -312715996#4 -312715996#3 -312715996#2 -312715996#1 -312715996#0 248976980#10 291325260#1 291325260#2 291325260#5 291325260#6"/>
    </vehicle>
    <vehicle id="veh60" type="veh_passenger" depart="63.00" departLane="best" departSpeed="max">
        <route edges="-311346862#7 -311346862#6 -311346862#5 -311346862#4 -311346862#3 -311346862#2 -311346862#1 317388747#1 437870662#1 -406125538#17 406125538#17"/>
    </vehicle>
    <vehicle id="veh61" type="veh_passenger" depart="64.05" departLane="best" departSpeed="max">
        <route edges="506316039#0 506316033#0 506316030#1 506316030#2 506316030#3 506316030#5 506316030#6 268564485#2 268564485#3 268564485#4 268564485#7 268564485#8 268564485#11 -406125538#4 -406125538#3 -406125538#2 -406125538#1 -406125538#0 -49788394#3 -49788394#0"/>
    </vehicle>
    <vehicle id="veh62" type="veh_passenger" depart="65.10" departLane="best">
        <route edges="312715996#4 312715996#5 -312715996#5 -312715996#4 -312715996#3 -312715996#2 -312715996#1 -312715996#0 248976980#10 291325260#1 291325260#2 291325260#5 291325260#6"/>
    </vehicle>
    <vehicle id="veh63" type="veh_passenger" depart="66.15" departLane="best" departSpeed="max">
        <route edges="264859962#0 -593840519#13 -593840519#12 -593840519#11 -593840519#10 -593840519#9 -593840519#6"/>
    </vehicle>
    <vehicle id="veh64" type="veh_passenger" depart="67.20" departLane="best" departSpeed="max">
        <route edges="374332385#0 374332385#2 374332385#5 374332385#6 401376480#1 401376480#2 401376480#3 401376480#4"/>
    </vehicle>
    <vehicle id="veh65" type="veh_passenger" depart="68.25" departLane="best" departSpeed="max">
        <route edges="-824669534 312715996#4 312715996#5 50160154#5 50160154#6 50160154#9 -406125538#12 -406125538#11 -406125538#10 -406125538#9 -406125538#8 -406125538#7 268564485#14"/>
    </vehicle>
    <vehicle id="veh67" type="veh_passenger" depart="70.35" departLane="best" departSpeed="max">
        <route edges="264859962#0 264859962#1 264859962#2 264859962#3 291325260#1 291325260#2 291325260#5 291325260#6"/>
    </vehicle>
    <vehicle id="veh69" type="veh_passenger" depart="72.45" departLane="best" departSpeed="max">
        <route edges="248976980#0 248976980#4 248976980#7 248976980#10 291325260#1 291325260#2 291325260#5 291325260#6"/>
    </vehicle>
    <vehicle id="veh74" type="veh_passenger" depart="77.70" departLane="best" departSpeed="max">
        <route edges="593840519#0 593840519#6 593840519#9 593840519#10 593840519#11 593840519#12 593840519#13 264859962#1 264859962#2 264859962#3 291325260#1 291325260#2 291325260#5 291325260#6"/>
    </vehicle>
    <vehicle id="veh75" type="veh_passenger" depart="78.75" departLane="best">
        <route edges="311346862#4 -311346862#4 -311346862#3 -311346862#2 -311346862#1 317388747#1 437870662#1 437870662#2 437870662#3"/>
    </vehicle>
    <vehicle id="veh76" type="veh_passenger" depart="79.80" departLane="best" departSpeed="max">
        <route edges="506599420#0 -593840519#6 -593840519#3"/>
    </vehicle>
    <vehicle id="veh77" type="veh_passenger" depart="80.85" departLane="best">
        <route edges="-437870662#1 -310620433#4 -310620433#3 -310620433#2 -310620433#1 -50160154#6 -50160154#5 -50160154#3 -50160154#2 506316030#5 506316030#6 401376480#1 401376480#2 401376480#3 50914316#0 50914316#1 269542356"/>
    </vehicle>
    <vehicle id="veh78" type="veh_passenger" depart="81.90" departLane="best" departSpeed="max">
        <route edges="264859962#0 264859962#1 264859962#2 264859962#3 291325260#1 291325260#2 291325260#5 291325260#6"/>
    </vehicle>
    <vehicle id="veh79" type="veh_passenger" depart="82.95" departLane="best" departSpeed="max">
        <route edges="49788394#0 49788394#3 406125538#0 406125538#1 406125538#2 406125538#3 406125538#4 248976980#4 248976980#7 312715996#0 312715996#1 312715996#2 312715996#3 312715996#4 312715996#5 312715996#7 312715996#8 312715996#9 317388747#1"/>
    </vehicle>
    <vehicle id="veh82" type="veh_passenger" depart="86.10" departLane="best" departSpeed="max">
        <route edges="-824669534 -312715996#3 -312715996#2 -312715996#1 -312715996#0 248976980#10 291325260#1 291325260#2 291325260#5 291325260#6"/>
    </vehicle>
    <vehicle id="veh83" type="veh_passenger" depart="87.15" departLane="best" departSpeed="max">
        <route edges="264859962#0 264859962#1 264859962#2 264859962#3 268564485#2 268564485#3 268564485#4 268564485#7 268564485#8 268564485#11 268564485#14"/>
    </vehicle>
    <vehicle id="veh85" type="veh_passenger" depart="89.25" departLane="best" departSpeed="max">
        <route edges="264859962#0 264859962#1 264859962#2 264859962#3 268564485#2 268564485#3 268564485#4 268564485#7 268564485#8 268564485#11 406125538#7 406125538#8 406125538#9 406125538#10 50160155"/>
    </vehicle>
    <vehicle id="veh86" type="veh_passenger" depart="90.30" departLane="best" departSpeed="max">
        <route edges="374332385#0 374332385#2 374332385#5 374332385#6 291325259#1 291325259#4 291325259#5 375408687#2 375408687#3 -375408687#3"/>
    </vehicle>
    <vehicle id="veh92" type="veh_passenger" depart="96.60" departLane="best" departSpeed="max">
        <route edges="248976980#0 248976980#4 248976980#7 312715996#0 312715996#1 312715996#2 312715996#3 824669534"/>
    </vehicle>
    <vehicle id="veh93" type="veh_passenger" depart="97.65" departLane="best" departSpeed="max">
        <route edges="248976980#0 406125538#7 406125538#8 406125538#9 406125538#10 406125538#11 406125538#12 406125538#13 406125538#14 406125538#15 406125538#16 406125538#17 437870662#2 437870662#3"/>
    </vehicle>
    <vehicle id="veh94" type="veh_passenger" depart="98.70" departLane="best">
        <route edges="268564485#4 268564485#7 268564485#8 -506599420#9 -506599420#8 -506599420#7 -506599420#6 -506599420#5 -506599420#4 -506599420#3 593840519#9 593840519#10 593840519#11 593840519#12 593840519#13 401376480#3 50914316#0 50914316#1 269542356"/>
    </vehicle>
    <vehicle id="veh95" type="veh_passenger" depart="99.75" departLane="best" departSpeed="max">
        <route edges="593840519#0 593840519#6 506599420#3 506599420#4 506599420#5 506599420#6 506599420#7 506599420#8 506599420#9 248976980#7 312715996#0 312715996#1 312715996#2 312715996#3 824669534"/>
    </vehicle>
    <vehicle id="veh96" type="veh_passenger" depart="100.80" departLane="best" departSpeed="max">
        <route edges="374332385#0 374332385#2 374332385#5 374332385#6 291325259#1 291325259#4 291325259#5 375408687#2"/>
    </vehicle>
    <vehicle id="veh98" type="veh_passenger" depart="102.90" departLane="best" departSpeed="max">
        <route edges="374332385#0 374332385#2 374332385#5 374332385#6 401376480#1 401376480#2 401376480#3 401376480#4"/>
    </vehicle>
    <vehicle id="veh99" type="veh_passenger" depart="103.95" departLane="best" departSpeed="max">
        <route edges="-311346862#7 -311346862#6 -311346862#5 -311346862#4 -311346862#3 -311346862#2 -311346862#1 -312715996#9 -312715996#8 -312715996#7 -312715996#5 -312715996#4 -312715996#3 -312715996#2 -312715996#1 -312715996#0 248976980#10 291325260#1 291325260#2 291325260#5 291325260#6"/>
    </vehicle>
    <vehicle id="veh100" type="veh_passenger" depart="105.00" departLane="best" departSpeed="max">
        <route edges="374332362#0 374332362#3 374332362#4 374332362#5 374332362#6 375408688#0 506316030#1 506316030#2 506316030#3 50160154#2 50160154#3 50160154#5 50160154#6 50160154#9 -406125538#12 -406125538#11 50160155"/>
    </vehicle>
    <vehicle id="veh101" type="veh_passenger" depart="106.05" departLane="best" departSpeed="max">
        <route edges="-50160154#11 -50160154#9 -50160154#6 -50160154#5 -50160154#3 -50160154#2 291325259#4 291325259#5 -375408688#0 -374332362#6 -374332362#5 374332387#0 374332387#1 374332387#2 374332387#3 374332387#5 51268713#1 51268713#2 51268713#3 51268713#4 51268713#5 51268713#6"/>
    </vehicle>
    <vehicle id="veh102" type="veh_passenger" depart="107.10" departLane="best" departSpeed="max">
        <route edges="-311346862#7 -311346862#6 -311346862#5 -311346862#4 -311346862#3 -311346862#2 -311346862#1 -312715996#9 -312715996#8 -312715996#7 50160154#5 50160154#6 50160154#9 -406125538#12 -406125538#11 -406125538#10 -406125538#9 -406125538#8 -406125538#7 -406125538#4 -406125538#3 -406125538#2 -406125538#1 -406125538#0 -49788394#3 -593840519#3"/>
    </vehicle>
    <vehicle id="veh103" type="veh_passenger" depart="108.15" departLane="best" departSpeed="max">
        <route edges="374332385#0 374332385#2 374332385#5 374332385#6 291325260#1 51268714#0 51268714#1 51268714#2 51268714#3 451928560#0 451928560#1 155811045#0 155811045#1 -374332362#6 -374332362#5 -374332362#4 374332362#4"/>
    </vehicle>
    <vehicle id="veh106" type="veh_passenger" depart="111.30" departLane="best" departSpeed="max">
        <route edges="374332385#0 374332385#2 374332385#5 374332385#6 268564485#2 268564485#3 268564485#4 268564485#7 268564485#8 310620432#0 310620432#1 310620432#2 310620432#3 310620432#4 310620433#1 310620433#2 310620433#3 310620433#4 311319110#1 311319110#2 311319110#3 311319110#4 311319110#5 311319110#6 311319110#7 311319110#8 311319110#9"/>
    </vehicle>
    <vehicle id="veh107" type="veh_passenger" depart="112.35" departLane="best" departSpeed="max">
        <route edges="264859962#0 264859962#1 264859962#2 264859962#3 291325260#1 291325260#2 291325260#5 291325260#6"/>
    </vehicle>
    <vehicle id="veh109" type="veh_passenger" depart="114.45" departLane="best" departSpeed="max">
        <route edges="-824669534 312715996#4 312715996#5 -50160154#3 -50160154#2 291325259#4 291325259#5 -375408688#0 -374332362#6 -374332362#5 374332387#0 374332387#1 374332387#2 374332387#3 374332387#5 374332387#6"/>
    </vehicle>
    <vehicle id="veh111" type="veh_passenger" depart="116.55" departLane="best">
        <route edges="375408687#3 375408687#4 -312715996#9 -312715996#8 -312715996#7 50160154#5 50160154#6 50160154#9 -406125538#12 -406125538#11 -406125538#10 -406125538#9 -406125538#8 -406125538#7 268564485#14"/>
    </vehicle>
    <vehicle id="veh112" type="veh_passenger" depart="117.60" departLane="best" departSpeed="max">
        <route edges="248976980#0 248976980#4 248976980#7 248976980#10 401376480#1 401376480#2 401376480#3 401376480#4"/>
    </vehicle>
    <vehicle id="veh113" type="veh_passenger" depart="118.65" departLane="best" departSpeed="max">
        <route edges="-311346862#7 -311346862#6 -311346862#5 -311346862#4 -311346862#3 -311346862#2 -311346862#1 -312715996#9 -312715996#8 -312715996#7 -312715996#5 -312715996#4 -312715996#3 -312715996#2 -312715996#1 -312715996#0 248976980#10 291325260#1 291325260#2 291325260#5 291325260#6"/>
    </vehicle>
    <vehicle id="veh117" type="veh_passenger" depart="122.85" departLane="best" departSpeed="max">
        <route edges="248976980#0 248976980#4 -506599420#9 -506599420#8 -506599420#7 -506599420#6 -506599420#5 -506599420#4 -506599420#3 -506599420#0"/>
    </vehicle>
    <vehicle id="veh118" type="veh_passenger" depart="123.90" departLane="best" departSpeed="max">
        <route edges="506599420#0 506599420#3 506599420#4 506599420#5 506599420#6 506599420#7 506599420#8 506599420#9 248976980#7 248976980#10 291325259#1 291325259#4 291325259#5 -375408688#0 -374332362#6 -374332362#5 374332387#0 374332387#1 374332387#2 374332387#3 374332387#5 374332387#6"/>
    </vehicle>
    <vehicle id="veh119" type="veh_passenger" depart="124.95" departLane="best" departSpeed="max">
        <route edges="374332385#0 374332385#2 374332385#5 374332385#6 291325259#1 50160154#2 50160154#3 -312715996#5 -312715996#4 824669534"/>
    </vehicle>
    <vehicle id="veh120" type="veh_passenger" depart="126.00" departLane="best" departSpeed="max">
        <route edges="374332385#0 374332385#2 374332385#5 374332385#6 268564485#2 268564485#3 268564485#4 268564485#7 268564485#8 248976980#7 312715996#0 -312715996#0"/>
    </vehicle>
    <vehicle id="veh121" type="veh_passenger" depart="127.05" departLane="best" departSpeed="max">
        <route edges="506599420#0 506599420#3 506599420#4 506599420#5 506599420#6 506599420#7 506599420#8 506599420#9 268564485#11 268564485#14"/>
    </vehicle>
    <vehicle id="veh123" type="veh_passenger" depart="129.15" departLane="best" departSpeed="max">
        <route edges="-437870662#4 -437870662#2 -406125538#17 -406125538#16 -406125538#15 -406125538#14 -406125538#13 -406125538#12 -406125538#11 -406125538#10 -406125538#9 -406125538#8 -406125538#7 -406125538#4 -406125538#3 -406125538#2 -406125538#1 -406125538#0 -49788394#3 -49788394#0"/>
    </vehicle>
    <vehicle id="veh124" type="veh_passenger" depart="130.20" departLane="best" departSpeed="max">
        <route edges="-437870662#4 -437870662#2 -406125538#17 -406125538#16 -406125538#15 -406125538#14 -406125538#13 -406125538#12 -406125538#11 -406125538#10 -406125538#9 -406125538#8 -406125538#7 248976980#4 248976980#7 248976980#10 291325260#1 291325260#2 291325260#5 291325260#6"/>
    </vehicle>
    <vehicle id="veh125" type="veh_passenger" depart="131.25" departLane="best" departSpeed="max">
        <route edges="248976980#0 248976980#4 310620432#0 310620432#1 310620432#2 310620432#3 310620432#4 310620433#1 310620433#2 310620433#3 310620433#4 311319110#1 311319110#2 311319110#3 311319110#4 311319110#5 311319110#6 311319110#7 311319110#8 311319110#9"/>
    </vehicle>
    <vehicle id="veh126" type="veh_passenger" depart="132.30" departLane="best" departSpeed="max">
        <route edges="451928555#0 451928555#1 155804118#1 374332362#3 374332362#4 374332362#5 374332362#6 375408688#0 506316030#1 506316030#2 506316030#3 506316030#5 506316030#6 401376480#1 401376480#2 -593840519#13 -593840519#12 -593840519#11 -593840519#10 -593840519#9 -593840519#6 -593840519#3"/>
    </vehicle>
    <vehicle id="veh127" type="veh_passenger" depart="133.35" departLane="best" departSpeed="max">
        <route edges="374332385#0 374332385#2 374332385#5 374332385#6 268564485#2 268564485#3 268564485#4 268564485#7 268564485#8 268564485#11 268564485#14"/>
    </vehicle>
    <vehicle id="veh128" type="veh_passenger" depart="134.40" departLane="best" departSpeed="max">
        <route edges="374332362#0 374332362#3 374332362#4 374332362#5 374332362#6 375408688#0 375408677#1 506316032#0"/>
    </vehicle>
    <vehicle id="veh130" type="veh_passenger" depart="136.50" departLane="best" departSpeed="max">
        <route edges="264859962#0 264859962#1 264859962#2 264859962#3 268564485#2 268564485#3 268564485#4 268564485#7 268564485#8 268564485#11 268564485#14"/>
    </vehicle>
    <vehicle id="veh131" type="veh_passenger" depart="137.55" departLane="best" departSpeed="max">
        <route edges="-311319110#10 -311319110#8 -311319110#7 -311319110#6 -311319110#5 -311319110#4 -311319110#3 -311319110#2 -311319110#1 437870662#1 437870662#2 437870662#3"/>
    </vehicle>
    <vehicle id="veh132" type="veh_passenger" depart="138.60" departLane="best" departSpeed="max">
        <route edges="374332385#0 374332385#2 374332385#5 374332385#6 268564485#2 268564485#3 268564485#4 268564485#7 268564485#8 268564485#11 268564485#14"/>
    </vehicle>
    <vehicle id="veh133" type="veh_passenger" depart="139.65" departLane="best" departSpeed="max">
        <route edges="49788394#0 49788394#3 406125538#0 406125538#1 406125538#2 406125538#3 406125538#4 248976980#4 248976980#7 248976980#10 291325260#1 291325260#2 291325260#5 291325260#6"/>
    </vehicle>
    <vehicle id="veh134" type="veh_passenger" depart="140.70" departLane="best" departSpeed="max">
        <route edges="264859962#0 264859962#1 264859962#2 264859962#3 291325259#1 50160154#2 50160154#3 -312715996#5"/>
    </vehicle>
    <vehicle id="veh135" type="veh_passenger" depart="141.75" departLane="best" departSpeed="max">
        <route edges="506599420#0 506599420#3 506599420#4 506599420#5 506599420#6 506599420#7 506599420#8 506599420#9 248976980#7 248976980#10 291325260#1 291325260#2 291325260#5 291325260#6"/>
    </vehicle>
    <vehicle id="veh136" type="veh_passenger" depart="142.80" departLane="best" departSpeed="max">
        <route edges="-50160154#11 -406125538#12 -406125538#11 -406125538#10 -406125538#9 -406125538#8 -406125538#7 -406125538#4 -406125538#3 -406125538#2 -406125538#1 -406125538#0 -49788394#3 -49788394#0"/>
    </vehicle>
    <vehicle id="veh137" type="veh_passenger" depart="143.85" departLane="best" departSpeed="max">
        <route edges="248976980#0 248976980#4 248976980#7 248976980#10 291325259#1 291325259#4 291325259#5 375408677#1 506316032#0"/>
    </vehicle>