<?xml version="1.0" encoding="UTF-8"?>

<!-- generated on 11/10/20 21:56:36 by Eclipse SUMO duarouter Version 1.7.0
<configuration xmlns:xsi="http://www.w3.org/2001/XMLSchema-instance" xsi:noNamespaceSchemaLocation="http://sumo.dlr.de/xsd/duarouterConfiguration.xsd">

    <input>
        <net-file value="D:\github\sumo-learning\2020-11-10-21-56-18\osm.net.xml"/>
        <route-files value="D:\github\sumo-learning\2020-11-10-21-56-18\osm.passenger.trips.xml"/>
    </input>

    <output>
        <output-file value="routes.rou.xml"/>
        <alternatives-output value="routes.rou.alt.xml"/>
    </output>

    <time>
        <begin value="0"/>
        <end value="60"/>
    </time>

    <report>
        <no-warnings value="true"/>
        <ignore-errors value="true"/>
        <no-step-log value="true"/>
    </report>

</configuration>
-->

<routes xmlns:xsi="http://www.w3.org/2001/XMLSchema-instance" xsi:noNamespaceSchemaLocation="http://sumo.dlr.de/xsd/routes_file.xsd">
    <vType id="veh_passenger" vClass="passenger"/>
    <vehicle id="veh0" type="veh_passenger" depart="0.00" departLane="best">
        <route edges="49134116#5 49134116#6 49134116#8 49134116#9 49134116#10 49134116#12 49134116#13 238707597#0 238707597#1 407513572#0 407513572#1 407513572#2 241545653#1 241545653#2 407513571 50202895 50202896#1 50202896#2 241811788#0 241811788#1 241811788#3 241811788#4 241811788#5 265735268 515156242 515156244 241536967#0 241536967#1 241536967#2 50830161#1 50830161#3 299804824#1 299804824#2 299804824#3 299804824#4 299804824#5 299804822#1 299804822#2 299804822#3 -264309964#1 -264309964#0"/>
    </vehicle>
    <vehicle id="veh1" type="veh_passenger" depart="1.37" departLane="best">
        <route edges="238707596#1 238707596#2 49134116#12 49134116#13 238707597#0 238707597#1 407513567#1 260789415#0 260789415#3 260789415#4 260789415#5 260789415#6 260789415#7 260789415#8 260789415#9 263056104#0 263056104#1 263056104#2 506597809#0 506597809#1 506597809#2 310620430#1 187045813#0"/>
    </vehicle>
    <vehicle id="veh2" type="veh_passenger" depart="2.73" departLane="best">
        <route edges="506597804#2 506597805#0 506597805#1 506597805#2 241545656#0 241545656#1 241545656#2 241545656#3 241545656#4 241545656#5 238707595#1 238707595#2 238707595#3 238707595#4 238707595#5 238707595#6 238707595#9 238707594 198589907 238707596#0 238707596#1 238707596#2 49788426#2"/>
    </vehicle>
    <vehicle id="veh3" type="veh_passenger" depart="4.10" departLane="best">
        <route edges="515156266#3 515156266#4 506596684#0 506596684#1 506596684#2 506596684#3 506596684#4 506596684#5 506596684#6 506597799#0 506597799#1 506597799#2 265735591 263056109 506597804#0 506597804#1 506597804#2 506597805#0 506597805#1 506597805#2 241545656#0 241545656#1 241545656#2 241545656#3 241545656#4 241545656#5 238707595#1 238707595#2 238707595#3 50202904#1 50202904#2 50202904#3 464589458 -464589458"/>
    </vehicle>
    <vehicle id="veh4" type="veh_passenger" depart="5.46" departLane="best" departSpeed="max">
        <route edges="299291335#0 299291335#2 299291335#3 226831247 265725164#0 265725164#1 265725164#2 299403731#0 506596676#1 506596676#2 506596676#3 450750323 306543362 49795874 200015399#0 200015399#1 200015399#2 515156253#0 515156253#1 515156253#2 515156246#1 515156246#2 515156240 515156242 515156244 241536967#0 241536967#1 241536967#2 50830161#1 50830161#3 299804824#1 299804824#2 299804824#3 299804824#4 299804824#5 299804822#1 299804822#2 299804822#3 300090400#1 300090400#2 300090400#4 300090400#7 300090400#8 857513617#0 857513617#1 -277048256#0"/>
    </vehicle>
    <vehicle id="veh5" type="veh_passenger" depart="6.83" departLane="best">
        <route edges="137317900 137317900-AddedOffRampEdge 137317915#1 779271015#1 779271015#2 779270993#0 779270993#2 779270993#3 846770309#0 424128314#0 49134129#0 49134129#1 49134129#2 846770310 846770311#0 846770311#1 49074708 338923678#0 338923678#1 302246990#0 302246990#1 407513572#0 407513572#1 407513572#2 241545653#1 241545653#2 407513571 50202895 50202896#1 50202896#2 241811788#0 241811788#1 241811788#3 241811788#4 241811788#5 265735268 515156242 515156244 241536967#0 241536967#1 241536967#2 50830161#1 50830161#3 437870658#1 437870658#4 437870658#5 437870658#6 273012211#1 273012211#2 273012211#3 273012211#4 273012211#5 273012211#6 265725161 732390620#0 732390620#1 732390620#2 312109408#5 312109408#6 312109408#7 312109408#8 312109408#9"/>
    </vehicle>
    <vehicle id="veh8" type="veh_passenger" depart="10.92" departLane="best">
        <route edges="137317902 137317913 95015336 95015334 29174276#0 29174276#1 338923674 779271000 765770904#0 765770904#1 45265806"/>
    </vehicle>
    <vehicle id="veh9" type="veh_passenger" depart="12.29" departLane="best">
        <route edges="51275425 207479350#1 207479350#2 207479350#3 207479350#4 290040218#1 290040218#2 290040218#3 290040218#5 290040218#6 290040218#7 -186890241#6 -186890241#5 -186890241#4"/>
    </vehicle>
    <vehicle id="veh11" type="veh_passenger" depart="15.02" departLane="best">
        <route edges="260789415#6 260789415#7 260789415#8 260789415#9 198589909#0 198589909#1 198589909#2 198589909#3 198589909#4 198589909#5 241545654#0 241545654#1 241545654#2 -51275441#4 -51275441#3 -51275441#2 -51275441#1"/>
    </vehicle>
    <vehicle id="veh13" type="veh_passenger" depart="17.75" departLane="best">
        <route edges="-49788417#10 -49788417#9 -49788417#8 -49788417#6 -49788417#5 -49788417#4 -49788417#3 -304591783#11 -304591783#10 -304591783#9 -49788403#1"/>
    </vehicle>
    <vehicle id="veh14" type="veh_passenger" depart="19.11" departLane="best">
        <route edges="51364312#3 -51364312#3 -51364312#2 51364315 361305452#1 361305452#2 361305452#3 361305452#5 361305452#6 361305452#7 50202910 262879963#0 262879963#1 262879963#2 262879963#3 262879963#4 262879963#5 262879963#6 262879963#8 262879963#9 262879963#10 262879963#11 262879963#12 262879963#13 262879963#14 262879963#15 262879963#16 407513564#0 407513564#1 260152354 254326521#0 254326521#2 254326521#3 254326521#4 254326521#5 49074698#0 49074708 338923678#0 98718119 48794908"/>
    </vehicle>
    <vehicle id="veh15" type="veh_passenger" depart="20.48" departLane="best">
        <route edges="51275423#0 -51275423#0 51275438#6 51275438#7 51275438#8 262879963#11 262879963#12 262879963#13 262879963#14 262879963#15 262879963#16 407513571 254326526#0 254326526#1 254326526#2 254326526#3 254326526#4 254326526#5 254326526#6 254326526#7 254326526#8 506597802"/>
    </vehicle>
    <vehicle id="veh16" type="veh_passenger" depart="21.84" departLane="best">
        <route edges="334835605 779270998#0 779270998#1 779271004#0 779271004#1 779271024 779271023"/>
    </vehicle>
    <vehicle id="veh17" type="veh_passenger" depart="23.21" departLane="best">
        <route edges="265725164#2 299403731#0 506596678#1 506596678#2 299403732#0 299403732#1 264689872#0 264689872#1 264689872#2 264689872#3 264689872#4 264689872#5 273012211#1 273012211#2 273012211#3 361366601#0 361366601#1 361366601#2 361366601#3"/>
    </vehicle>
    <vehicle id="veh19" type="veh_passenger" depart="25.94" departLane="best">
        <route edges="515156248#0 515156248#1 515156248#2 515156253#0 515156253#1 515156253#2 515156246#1 515156246#2 515156241 241811787#0 241811787#1 241811787#2 241811787#3 241536969#0 241536969#1 241536969#2 50202893#0 407513564#0 407513564#1"/>
    </vehicle>
    <vehicle id="veh20" type="veh_passenger" depart="27.30" departLane="best">
        <route edges="50202896#2 241536961#0 241536961#1 308286090#0 308286090#1 308286090#2 308286090#3 308286090#4 308286090#5 308286090#6 308286090#7 308286090#9 308286090#10 308286090#11 308286090#12 308286090#13 506597799#0 506597799#1 506597799#2 265735591 263056109 506597804#0 506597804#1 506597804#2 506597805#0 506597805#1 506597805#2 241545656#0 241545656#1 241545656#2 241545656#3 241545656#4 241545656#5 263056104#0 263056104#1 263056104#2 506597809#0 506597809#1 506597809#2 506597811 506597812#0 506597812#1 506597812#2 506597812#3 -304591783#18 -304591783#17 -304591783#16"/>
    </vehicle>
    <vehicle id="veh21" type="veh_passenger" depart="28.67" departLane="best">
        <route edges="186890243#1 186890242#3 186890242#4 186890242#5 -308799570#1 241545654#0 241545654#1 241545654#2 506597807#0 506597807#1 506597807#2 262879969 313235566#0 313235566#1 313235566#2 313235566#3 313235566#4 506597801#1 506597801#3 506597801#4 506597801#5 265735749#0 265735749#1 265735749#2 319208670#0 319208670#1 515156255#0 515156255#1 515156255#2 515156251#0 515156251#1 515156251#2 515156251#3 515156251#4 241811753 265735269#0 265735269#1 265735269#2 49795872#1 859342008 294201931#0 294201931#1 49795832#1 49795832#2 241536933#0 241536933#1"/>
    </vehicle>
    <vehicle id="veh22" type="veh_passenger" depart="30.03" departLane="best">
        <route edges="-464589453 464589453 238707595#9 238707594 198589907 238707596#0 238707596#1 238707596#2 238707596#4 238707596#5 238707596#6 238707596#7 238707596#10 238707596#11 238707596#14 238707596#15 238707596#16 238707596#17 238707596#18 198589897#0 198589897#1 198589897#2 198589897#3 198589897#4"/>
    </vehicle>
    <vehicle id="veh23" type="veh_passenger" depart="31.40" departLane="best">
        <route edges="49134116#12 49134116#13 238707597#0 238707597#1 407513567#1 260789415#0 260789415#3 260789415#4 260789415#5 260789415#6 260789415#7 260789415#8 260789415#9 198589909#0 198589909#1 198589909#2 198589909#3 198589909#4 198589909#5 241545654#0 241545654#1 241545654#2 506597807#0 506597807#1 506597807#2 262879969 313235566#0 313235566#1 313235566#2 313235566#3 313235566#4 506597801#1 506597801#3 506597801#4 506597801#5 265735748 50893546 278492471 278492470#0 278492470#1 278492470#2 506596678#1 506596678#2 299403732#0 299403732#1 264689872#0 264689872#1 264689872#2 264689872#3 264689872#4 264689872#5"/>
    </vehicle>
    <vehicle id="veh24" type="veh_passenger" depart="32.76" departLane="best">
        <route edges="264689872#14 327721856#1 327721856#3 241536973#1 241536973#2 515156237 515156238 515156241 241811787#0 241811787#1 241811787#2 241811787#3 241536969#0 241536969#1 241536969#2 50202893#0 50202893#1 50202893#2 50202893#3 260789417#0 260789417#1 260789417#2 260789417#3 260789416#0 260789416#2 260789416#3 198589907 238707588 198589903#1 198589903#2 49074711#0 49074711#1 454315057 137317900"/>
    </vehicle>
    <vehicle id="veh25" type="veh_passenger" depart="34.13" departLane="best">
        <route edges="238707587#4 238707587#5 238707587#6 334816784#0 334816784#1 334816784#2 334816784#3 334816784#4 334816784#5 506597810#0 506597810#1 506597810#2 506597810#3 198589909#0 198589909#1 198589909#2 198589909#3 198589909#4 198589909#5 241545654#0 241545654#1 241545654#2 506597807#0 506597807#1 506597807#2 262879969 313235566#0 313235566#1 313235566#2 313235566#3 313235566#4 506597799#0 506597799#1 506597799#2 50202900#1 50202900#2 50202900#3 763092094#1 763092094#2"/>
    </vehicle>
    <vehicle id="veh27" type="veh_passenger" depart="36.86" departLane="best">
        <route edges="-51364312#2 51364315 361305452#1 361305452#2 361305452#3 361305452#5 361305452#6 361305452#7 50202910 262879963#0 262879963#1 262879963#2 262879963#3 262879963#4 262879963#5 262879963#6 262879963#8 262879963#9 262879963#10 262879963#11 262879963#12 262879963#13 262879963#14 262879963#15 262879963#16 407513571 50202895 50202896#1 50202896#2 241811788#0 241811788#1 241811788#3 241811788#4 241811788#5 265735269#0"/>
    </vehicle>
    <vehicle id="veh29" type="veh_passenger" depart="39.59" departLane="best">
        <route edges="361366598 -361366598 264689872#12 264689872#13 264689872#14 327721856#1 327721856#3 241536973#1 241536973#2 515156237 515156238 515156240 515156243#0 515156243#1 49795872#1 49795872#2"/>
    </vehicle>
    <vehicle id="veh30" type="veh_passenger" depart="40.95" departLane="best" departSpeed="max">
        <route edges="51364300#0 51364300#1 51364299#2 51364299#3 51364299#4 -308799570#2 -308799570#1 241545654#0 241545654#1 241545654#2 506597807#0 506597807#1 506597807#2 262879969 313235566#0 313235566#1 313235566#2 313235566#3 313235566#4 506597801#1 506597801#3 506597801#4 506597801#5 265735748 50893546"/>
    </vehicle>
    <vehicle id="veh31" type="veh_passenger" depart="42.32" departLane="best">
        <route edges="186890243#3 51364299#3 51364299#4 -308799570#2 -308799570#1 -260789406#20 -260789406#19 -260789406#18 -260789406#17 -260789406#16 -260789406#15 -290040218#3"/>
    </vehicle>
    <vehicle id="veh32" type="veh_passenger" depart="43.68" departLane="best">
        <route edges="241811787#1 241811787#2 241811787#3 241536969#0 241536969#1 241536969#2 50202893#0 50202893#1 50202893#2 50202893#3 260789417#0 260789417#1 260789417#2 260789417#3 260789416#0 260789416#2 260789416#3 198589907 238707596#0 238707596#1"/>
    </vehicle>
    <vehicle id="veh33" type="veh_passenger" depart="45.05" departLane="best" departSpeed="max">
        <route edges="137317898 137317904#0 137317904#1 338929664 779271019 779271001#0 779271001#1 137317902 137317913 198589897#0 198589897#1 198589897#2 198589897#3 198589897#4 307023766#0 307023766#1 198589912#2 198589912#3 198589912#5 198589912#6 198589912#7 506599419#0 506599419#1 506599419#2 506599419#4 772891699#0 772891699#1"/>
    </vehicle>
    <vehicle id="veh34" type="veh_passenger" depart="46.41" departLane="best">
        <route edges="515156255#0 515156255#1 515156255#2 515156251#0 515156251#1 515156251#2 515156251#3 515156251#4 241811787#0 241811787#1 241811787#2 241811787#3 241536969#0 241536969#1 241536969#2 50202893#0 407513564#0 407513564#1 260152354 254326521#0"/>
    </vehicle>
    <vehicle id="veh35" type="veh_passenger" depart="47.78" departLane="best" departSpeed="max">
        <route edges="49164288 49074706 49074696 302246990#0 302246990#1 407513572#0 407513572#1 407513572#2 241545653#1 241545653#2 407513571 50202895 50202896#1 50202896#2 241811788#0 241811788#1 241811788#3 241811788#4 241811788#5 265735268 515156242 515156244 241536967#0 241536967#1 241536967#2 50830161#1 50830161#3 273012209#1 273012209#2"/>
    </vehicle>
    <vehicle id="veh36" type="veh_passenger" depart="49.14" departLane="best">
        <route edges="52248977#4 -52248977#4 -52248977#3 308987019#5 308987019#7 308987019#8 308987019#9 308987019#10 308987019#11 506597799#0 506597799#1 506597799#2 265735591 263056109 506597804#0 506597804#1 506597804#2 506597805#0 506597805#1 506597805#2 241545656#0 241545656#1 241545656#2 241545656#3 241545656#4 241545656#5 263056104#0 263056104#1 263056104#2 506597809#0 506597809#1 506597809#2 506597811 506597812#0 506597812#1 506597812#2 506597812#3 -304591783#18 -304591783#17 -304591783#16 -304591783#15 -304591783#14 304591783#14"/>
    </vehicle>
    <vehicle id="veh37" type="veh_passenger" depart="50.51" departLane="best">
        <route edges="230980526#3 -50202904#1 -371568597#1 -371568597#0 -290040218#7 -290040218#6 -290040218#5 -260789406#13 -260789406#12 -260789406#11 -260789406#9 -260789406#8 51275438#5 51275438#6 51275427#0 51275427#1 205085131#2"/>
    </vehicle>
    <vehicle id="veh39" type="veh_passenger" depart="53.24" departLane="best">
        <route edges="437870658#1 437870658#4 437870658#5 437870658#6 273012211#1 273012211#2 273012211#3 273012211#4 273012211#5 273012211#6 265725161 732390620#0 732390620#1 52248869#1 -52248871#2 -52248871#1 52248871#1"/>
    </vehicle>
    <vehicle id="veh40" type="veh_passenger" depart="54.60" departLane="best">
        <route edges="278492469#0 278492469#1 278492469#2 278492469#3 278492469#4 515156265 -515156262 515156261#0 515156261#1 515156261#2 49788435 506596684#0 506596684#1 506596684#2 506596684#3 506596684#4 506596684#5 506596684#6 506597799#0 506597799#1 506597799#2 265735591 263056109 506597804#0 506597804#1 506597804#2 506597805#0 506597805#1 506597805#2 241545656#0 241545656#1 241545656#2 186890243#0 186890243#1"/>
    </vehicle>
    <vehicle id="veh41" type="veh_passenger" depart="55.97" departLane="best">
        <route edges="859342008 859342007#0 859342007#1 859342007#2 51338491 793191066#0 50202893#0 50202893#1 50202893#2 50202893#3 260789417#0 260789417#1 260789417#2 260789417#3 260789416#0 407513567#1 260789415#0 260789415#3 260789415#4 260789415#5 260789415#6 260789415#7 260789415#8 260789415#9 263056100#1 263056100#2 263056100#3 593840519#1 593840519#2 593840519#3 593840519#4 593840519#5 593840519#6 593840519#7 316964704#3"/>
    </vehicle>
    <vehicle id="veh42" type="veh_passenger" depart="57.33" departLane="best" departSpeed="max">
        <route edges="-50202900#5 -50202900#3 -50202900#2 -50202900#1 265735591 263056109 506597804#0 506597804#1 506597804#2 506597805#0 506597805#1 506597805#2 241545656#0 241545656#1 241545656#2 241545656#3 241545656#4 241545656#5 263056104#0 263056104#1 263056104#2 506597809#0 506597809#1 506597809#2 506597811 506597812#0 506597812#1 506597812#2 506597812#3 506599419#0 506599419#1 506599419#2 506599419#4 772891699#0 772891699#1 238707591#1 238707591#2 304591777#0 304591777#1 304591777#2 304591777#3 304591777#4 49134116#1 49134116#2"/>
    </vehicle>
    <vehicle id="veh43" type="veh_passenger" depart="58.70" departLane="best" departSpeed="max">
        <route edges="50904908 50904920#2 -277048253 50893520#6 50893520#8 50893520#9 299804823#0 299804823#1 299804823#2 291356417#2 291356417#3 291356417#4 291356417#5 291356417#6 327721856#1 327721856#3 241536973#1 241536973#2 515156237 515156238 515156241 241811787#0 241811787#1 241811787#2 241811787#3 241536969#0 241536969#1 241536969#2 50202893#0 50202893#1 50202893#2 50202893#3 260789417#0 260789417#1 260789417#2 260789417#3 260789416#0 260789416#2 49134108#1 49134108#2 49134108#3 291325258"/>
    </vehicle>
</routes>
