<?xml version="1.0" encoding="UTF-8"?>

<!-- generated on 11/19/20 12:14:31 by Eclipse SUMO duarouter Version 1.7.0
<configuration xmlns:xsi="http://www.w3.org/2001/XMLSchema-instance" xsi:noNamespaceSchemaLocation="http://sumo.dlr.de/xsd/duarouterConfiguration.xsd">

    <input>
        <net-file value="D:\github\sumo-learning\2020-11-19-12-14-22\osm.net.xml"/>
        <route-files value="D:\github\sumo-learning\2020-11-19-12-14-22\osm.passenger.trips.xml"/>
    </input>

    <output>
        <output-file value="routes.rou.xml"/>
        <alternatives-output value="routes.rou.alt.xml"/>
    </output>

    <time>
        <begin value="0"/>
        <end value="3600"/>
    </time>

    <report>
        <no-warnings value="true"/>
        <ignore-errors value="true"/>
        <no-step-log value="true"/>
    </report>

</configuration>
-->

<routes xmlns:xsi="http://www.w3.org/2001/XMLSchema-instance" xsi:noNamespaceSchemaLocation="http://sumo.dlr.de/xsd/routes_file.xsd">
    <vType id="veh_passenger" vClass="passenger"/>
    <vehicle id="veh0" type="veh_passenger" depart="0.00" departLane="best">
        <route edges="377740852 377740860 377740862#2 377740862#3 377740862#4 377740862#5 506389480#3 506389480#4 244618574 506359679#1 506359679#3 49186490 494989314#0 -257922302"/>
    </vehicle>
    <vehicle id="veh1" type="veh_passenger" depart="6.61" departLane="best">
        <route edges="506316037#4 506316037#5 506316037#7 374427270 189615566 374427273#0 374427273#1 374427273#2 506359662#1 506359662#2 506359662#3 506359662#4 506359672#0 506359672#1 506359672#2 506359672#3 238710697#1 238710697#3 238710697#4 238710697#6 238710697#7 238710697#8 238710697#9 238710698#1 238710698#2 238710698#4 238710698#5 238710698#6 238710698#7 238710698#8 238710698#9 238710698#10 238710698#11 -557563419#14 -557563419#13 -557563419#12 -557563419#11 -557563419#10 -557563419#9 -557563419#8 -557563419#7 452108520"/>
    </vehicle>
    <vehicle id="veh2" type="veh_passenger" depart="13.21" departLane="best">
        <route edges="313675767#5 313675767#6 244618574 506359679#1 506359679#3 506359676#1 506359676#2 506359676#3 506359668#1 506359668#2 506359668#4 506359668#6 374332377#0 374332377#1 374332377#2 374332377#4 30337330 -30337330"/>
    </vehicle>
    <vehicle id="veh3" type="veh_passenger" depart="19.82" departLane="best">
        <route edges="-557563419#9 -557563419#8 -557563419#7 -557563419#6 -557563419#5 144500729#0 144500729#2 144500729#4 144500729#5 144500729#7 144500733 264589677 374332374 374332376#0 374332376#1 374332380#0 374332380#1 374332380#2 374332380#3 374332380#4 374332380#6"/>
    </vehicle>
    <vehicle id="veh4" type="veh_passenger" depart="26.43" departLane="best">
        <route edges="377740862#2 377740856 377740859#0 377740859#1 238710697#6 238710697#7 238710697#8 238710697#9 238710698#1 238710698#2 238710698#4 238710698#5 238710698#6 238710698#7 238710698#8 238710698#9 238710698#10 238710698#11 -557563419#14 -557563419#13 -557563419#12 -557563419#11 -557563419#10 -557563419#9 -557563419#8 -557563419#7 -557563419#6 -557563419#5 144500729#0 144500729#2 144500729#4 144500729#5 144500729#7 144500733 264589677 374332385#0 374332385#1 374332385#2 374332385#5 374332385#6 374332385#7"/>
    </vehicle>
    <vehicle id="veh5" type="veh_passenger" depart="33.03" departLane="best">
        <route edges="-557566168#6 557566168#6 557566168#7 557566168#8 51268678#10 51268678#11 -51420546#9 -51420546#8 -51420546#6 -51420546#5 -51420546#3 -51420546#2 -51420546#1 232361463#3 232361463#4 232361463#6 232361463#7 232361463#8 51268702#2 51268702#4 51268702#5 51268702#7 51268702#8 51268702#10 51268701#0 51268701#1 51268701#2 51268701#3 51268701#4 51268701#5 51268701#6 506359668#1 506359668#2 506359668#4 506359668#6 374427272 -374427263#2 374427263#2 232359756 374427262#0 374427264#0"/>
    </vehicle>
    <vehicle id="veh6" type="veh_passenger" depart="39.64" departLane="best">
        <route edges="51268652#1 51268652#2 51268652#3 51268678#23 144500731#0 144500731#1 144500731#2 144500731#3 144500731#4 103533006#0 103533006#1 103533006#2 -103533006#2"/>
    </vehicle>
    <vehicle id="veh7" type="veh_passenger" depart="46.25" departLane="best">
        <route edges="51268650#5 51268650#6 51268678#22 51268678#23 51268676#0 51268676#1 51268676#3 51268676#4 51268676#6 51268676#7 232361464#2 232361464#3 232361464#4 232361464#7 232361464#8 232361464#10 506359679#1 506359679#3 506359676#1 506359676#2 506359676#3 506359668#1 506359668#2 506359668#4 506359668#6 374427272 232359746 374427271 472093921#0 472093921#1 472093921#3 472093921#4 472093921#5"/>
    </vehicle>
    <vehicle id="veh8" type="veh_passenger" depart="52.85" departLane="best">
        <route edges="238710698#5 238710698#6 238710698#7 238710698#8 238710698#9 238710698#10 238710698#11 -51268678#23 -51268678#22 -51268678#17 -51268678#16 -51268678#15 -51268678#14 -51268678#13 -51268678#12 -51268678#11 -51268678#10 -51268678#7"/>
    </vehicle>
    <vehicle id="veh9" type="veh_passenger" depart="59.46" departLane="best">
        <route edges="-49710859#2 -49710859#1 506316037#5 506316037#7 374427270 374427262#0 -374427262#0 -232359756 -374427263#2 -374427263#1 -374332367#2 -374332367#0 374332363 374332362#1 374332362#4 374332362#5 -452116335#4 -452116335#3 -452116335#2 -452116335#1"/>
    </vehicle>
    <vehicle id="veh11" type="veh_passenger" depart="72.67" departLane="best">
        <route edges="51268650#6 51268678#22 51268678#23 51268676#0 51268676#1 51268676#3 51268676#4 51268675#1 51268675#2 51268675#3 51268675#4 51268675#5 51268675#6 51268675#7 -51268695#1 -51268695#0 51268696#0 51268696#1 51268696#2 51268696#3 51268696#4 374332377#2 374332377#4 30337330 374332363 374332375#0 374332375#1 374332375#2 374332375#3 374427267#0 374427267#2 374332370 374427265#0 374427265#1 49710852#1 -49710859#1 49710859#1"/>
    </vehicle>
    <vehicle id="veh12" type="veh_passenger" depart="79.28" departLane="best">
        <route edges="374332380#3 374332380#4 374332380#6 374332375#0 374332375#1 374332375#2 374332375#3 374427267#0 374427267#2 374332370 374427270 189615566 374427273#0 374427273#1 374427273#2 506359662#1 506359662#2 506359662#3 506359662#4 506359672#0 506359672#1 506359672#2 506359672#3 232361468 51420575#1 51420575#2"/>
    </vehicle>
    <vehicle id="veh14" type="veh_passenger" depart="92.49" departLane="best">
        <route edges="51268679#3 506359676#1 506359676#2 506359676#3 506359668#1 506359668#2 506359668#4 506359668#6 374332377#0 374332377#1 374332377#2 374332377#4 30337330 374332363 374332362#1 374332362#4 374332362#5 374332387#0 374332387#1 374332387#2 374332387#3 374332387#5 374332387#6 374332391#0"/>
    </vehicle>
    <vehicle id="veh15" type="veh_passenger" depart="99.10" departLane="best">
        <route edges="494997374 -494997377#2 51268696#1 51268696#2 51268696#3 51268696#4 374332377#2 374332377#4 30337330 -374332369#3 -374332369#2 -374332364#1"/>
    </vehicle>
    <vehicle id="veh16" type="veh_passenger" depart="105.71" departLane="best" departSpeed="max">
        <route edges="-776507972#1 506359662#2 506359662#3 506359662#4 506359676#1 506359676#2 506359676#3 -51268701#6 -51268701#5 -51268701#4 -51268701#3 -51268701#2 -51268701#1 -51268701#0 -51268702#10 442655084#1 51268695#0 51268695#1 51268695#3 51268695#4 51268695#5 51268695#6 51268695#7 -103532303#3 -103532303#2 -103532303#1 -103532303#0 -103534039#3 -103534039#2 144500729#5"/>
    </vehicle>
    <vehicle id="veh17" type="veh_passenger" depart="112.31" departLane="best">
        <route edges="-452116335#0 452116335#0 452116335#1 452116335#2 452116335#3 452116335#4 -374332362#5 -374332362#4 -374332362#3 -374332363 -30337330 329022964#0 329022964#1 329022964#3 329022964#4 329022964#6 144500732#0 144500732#1 144500732#2 144500732#3 144500732#5 144500732#6 557563419#5 557563419#6 557563419#7 557563419#8 -557563419#8"/>
    </vehicle>
    <vehicle id="veh18" type="veh_passenger" depart="118.92" departLane="best">
        <route edges="-504465240#1 -504465240#0 -51268701#6 -51268701#5 -51268701#4 -51268701#3 -51268701#2 -51268701#1 -51268701#0 -51268702#10 -51268702#8 -51268702#7 -51268702#5 -51268702#4 -51268702#2 238710698#1 238710698#2 238710698#4 238710698#5 238710698#6 238710698#7 238710698#8 238710698#9 238710698#10 238710698#11 -557563419#14 -557563419#13 -557563419#12 -557563419#11 -557563419#10 -557563419#9 -557563419#8 -557563419#7 -557563419#6 -557563419#5 144500729#0"/>
    </vehicle>
    <vehicle id="veh19" type="veh_passenger" depart="125.53" departLane="best">
        <route edges="374427273#1 374427273#2 506359662#1 506359662#2 506359662#3 506359662#4 506359672#0 506359672#1 506359672#2 506359672#3 238710697#1 238710697#3 238710697#4 238710697#6 238710697#7 238710697#8 238710697#9 238710698#1 238710698#2 238710698#4"/>
    </vehicle>
    <vehicle id="veh20" type="veh_passenger" depart="132.14" departLane="best" departSpeed="max">
        <route edges="291325260#0 291325260#1 291325260#2 291325260#5 291325260#6 374332384#0 374332384#1 374332383 374332382 232361473 144500732#0 144500732#1 144500732#2 144500732#3 144500732#5 144500732#6 557563419#5 557563419#6 557563419#7 557563419#8 557563419#9 557563419#10 -51268653 51268650#4 51420502#0 -51420502#0"/>
    </vehicle>
    <vehicle id="veh21" type="veh_passenger" depart="138.74" departLane="best">
        <route edges="144500729#5 144500729#7 144500733 264589677 374332374 374332376#0 374332376#1 374332380#0 374332380#1 374332380#2 374332380#3 374332380#4 374332380#6 374332375#0 374332375#1 374332375#2 374332375#3 374427267#0 374427267#2 374427271 472093921#0 51268706#1 51268706#2 51268706#3"/>
    </vehicle>
    <vehicle id="veh22" type="veh_passenger" depart="145.35" departLane="best">
        <route edges="377740862#0 377740862#1 377740862#2 377740862#3 377740862#4 377740862#5 506389480#3 506389480#4 244618574 506359679#1 506359679#3 506359676#1 506359676#2 506359676#3 506359668#1 506359668#2 506359668#4 506359668#6 374332377#0 374332377#1 374332377#2 374332377#4 30337330 374332363 374332375#0 374332375#1 374332375#2 374332375#3 374427267#0 374427267#2"/>
    </vehicle>
    <vehicle id="veh23" type="veh_passenger" depart="151.96" departLane="best">
        <route edges="-51268701#4 51268701#4 51268701#5 51268701#6 506359668#1 506359668#2 506359668#4 506359668#6 374332377#0 374332377#1 374332377#2 374332377#4 30337330 374332363 374332375#0 374332375#1 374332375#2 374332375#3 374427267#0 374427267#2 374332370 374427265#0 374427265#1 49710852#1 -49710859#1 49710859#1"/>
    </vehicle>
    <vehicle id="veh24" type="veh_passenger" depart="158.56" departLane="best">
        <route edges="-51268695#4 51268695#4 51268695#5 51268695#6 51268695#7 -103532303#3 -103532303#2 -103532303#1 -103532303#0 -103534039#3 -103534039#2 144500729#5 144500729#7 144500733 264589677"/>
    </vehicle>
    <vehicle id="veh25" type="veh_passenger" depart="165.17" departLane="best">
        <route edges="767884495 336062767 51268701#3 51268701#4 51268701#5 51268701#6 506359662#1 506359662#2 506359662#3 506359662#4 506359672#0 506359672#1 506359672#2 506359672#3 232361468 189615573#1 189615573#2 189615573#4 506389482#1 506389482#2 377740853"/>
    </vehicle>
    <vehicle id="veh27" type="veh_passenger" depart="178.38" departLane="best">
        <route edges="51268676#7 232361464#2 232361464#3 232361464#4 232361464#7 232361464#8 232361464#10 506359679#1 506359679#3 506359676#1 506359676#2 506359676#3 506359668#1 506359668#2 506359668#4"/>
    </vehicle>
    <vehicle id="veh28" type="veh_passenger" depart="184.99" departLane="best" departSpeed="max">
        <route edges="-776507972#1 506359662#2 506359662#3 506359662#4 506359676#1 506359676#2 506359676#3 -51268701#6 -51268701#5 -51268701#4 -51268701#3 -51268701#2 -51268701#1 -51268701#0 -51268702#10 442655084#1 51268695#0 51268695#1 51268695#3 51268695#4 -51268680#1 -51268680#0 -327528737#1 -327528737#0"/>
    </vehicle>
    <vehicle id="veh29" type="veh_passenger" depart="191.60" departLane="best">
        <route edges="232361464#2 232361464#3 232361464#4 232361464#7 232361464#8 232361464#10 238710697#1 238710697#3 238710697#4 238710697#6 238710697#7 238710697#8 238710697#9 238710698#1 238710698#2 238710698#4 238710698#5 238710698#6 238710698#7 238710698#8 238710698#9 238710698#10 238710698#11 144500731#0 144500731#1 144500731#2 144500731#3 144500731#4 103533006#0"/>
    </vehicle>
    <vehicle id="veh30" type="veh_passenger" depart="198.20" departLane="best">
        <route edges="-557563419#12 -557563419#11 -557563419#10 -557563419#9 -557563419#8 -557563419#7 -557563419#6 -557563419#5 144500729#0 144500729#2 144500729#4 144500729#5 144500729#7 144500733 264589677 374332389 374332388 374332390#3 51268713#0 51268713#1 51268713#2 51268713#3 51268713#4 51268713#5 51268713#6 -452116335#4 -452116335#3 -452116335#2 -452116335#1 51268711#1 51268711#2"/>
    </vehicle>
    <vehicle id="veh31" type="veh_passenger" depart="204.81" departLane="best">
        <route edges="51268689#5 51268689#6 51268689#7 494997377#0 494997377#1 494997377#2 767884495 336062767 51268701#3 51268701#4 51268701#5 51268701#6 506359668#1 506359668#2 506359668#4 506359668#6 374427272 -374427263#2 374427263#2 232359756 374427262#0 -374427262#0 189615566"/>
    </vehicle>
    <vehicle id="veh33" type="veh_passenger" depart="218.02" departLane="best">
        <route edges="51268702#4 51268702#5 51268702#7 51268702#8 51268702#10 190680558#1 -494997377#2 51268696#1 51268696#2 51268696#3 51268696#4 374332377#2 374332377#4 30337330 374332363 374332375#0"/>
    </vehicle>
    <vehicle id="veh34" type="veh_passenger" depart="224.63" departLane="best">
        <route edges="144500729#5 144500729#7 144500733 -374332365#2 374332365#1 264484756 232361473 144500732#0 144500732#1 144500732#2 144500732#3 -103533006#7 -103533006#6 -103533006#5 -103533006#4 -103533006#3 -763092089"/>
    </vehicle>
    <vehicle id="veh36" type="veh_passenger" depart="237.84" departLane="best">
        <route edges="374332387#5 374332387#6 374332391#0 374332391#1 374332380#0 374332380#1 374332380#2 374332380#3 374332380#4 374332380#6 -374332363 -30337330 51268689#0 51268689#4 51268689#5 51268689#6 51268689#7 51268689#9 51268689#10 -51268695#1 51268695#1"/>
    </vehicle>
    <vehicle id="veh37" type="veh_passenger" depart="244.45" departLane="best" departSpeed="max">
        <route edges="310849377#0 506389480#1 506389480#3 506389480#4 244618574 238710697#1 238710697#3 238710697#4 238710697#6 238710697#7 238710697#8 238710697#9 238710698#1 238710698#2 238710698#4 238710698#5 238710698#6 238710698#7 238710698#8 238710698#9 238710698#10 238710698#11 -557563419#14 -557563419#13 -557563419#12 -557563419#11 -557563419#10"/>
    </vehicle>
    <vehicle id="veh39" type="veh_passenger" depart="257.66" departLane="best">
        <route edges="-49710854#1 49710854#1 -49710859#2 -49710859#1 506316037#5 506316037#7 374427270 374427262#0 -374427262#0 -232359756 -374427263#2 -374427263#1 -374332367#2 -374332367#0 -374332369#3 -374332369#2 -374332364#1 -374332371#2 -264484756 -374332365#2 -374332365#0"/>
    </vehicle>
    <vehicle id="veh40" type="veh_passenger" depart="264.27" departLane="best" departSpeed="max">
        <route edges="-504465240#3 -504465240#1 -504465240#0 506359668#1 506359668#2 506359668#4 506359668#6 374427272 -374427263#2 374427263#2 232359756 374427262#0 -374427262#0 189615566 374427273#0"/>
    </vehicle>
    <vehicle id="veh41" type="veh_passenger" depart="270.88" departLane="best">
        <route edges="50914252#3 50914252#4 50914252#5 50914252#6 50914252#7 50914252#8 144500732#6 557563419#5 557563419#6 557563419#7 557563419#8 557563419#9 557563419#10 557563419#11 557563419#12 557563419#13 557563419#14 51268676#0 51268676#1 51268676#3 51268676#4 51268675#1 51268675#2 51268675#3 51268675#4 51268675#5 51268675#6 51268675#7 -51268695#1 -51268695#0 51268696#0 51268696#1 51268696#2 51268696#3 51268696#4 374332377#2 374332377#4 329022964#0 329022964#1 329022964#3 329022964#4 329022964#6"/>
    </vehicle>
    <vehicle id="veh44" type="veh_passenger" depart="290.70" departLane="best">
        <route edges="557563419#14 -51268678#23 -51268678#22 -51268678#17 -51268678#16 -51268678#15 -51268678#14 -51268678#13 -51268678#12 51268678#12"/>
    </vehicle>
    <vehicle id="veh45" type="veh_passenger" depart="297.30" departLane="best">
        <route edges="-103533006#7 103533006#7 144500729#2 144500729#4 144500729#5 144500729#7 144500733 264589677 374332374 374332376#0 374332376#1 374332380#0 374332380#1 374332380#2 374332380#3 374332380#4 374332380#6 374332375#0 374332375#1 374332375#2 374332375#3 374427267#0 374427267#2 374332370 374427265#0 374427265#1 374427265#2 49710854#1"/>
    </vehicle>
    <vehicle id="veh47" type="veh_passenger" depart="310.52" departLane="best">
        <route edges="144500729#5 144500729#7 144500733 -374332365#2 374332365#1 264484756 232361473 144500732#0 144500732#1 144500732#2 144500732#3 144500732#5 144500732#6 557563419#5 557563419#6 557563419#7 557563419#8 557563419#9 557563419#10 557563419#11 557563419#12 557563419#13 557563419#14 51268676#0 51268676#1 51268676#3 51268676#4 51268676#6 51268676#7 51268670#1 51268670#2 51268670#4 51268670#5 377740862#0 377740862#1 377740862#2 377740856"/>
    </vehicle>
    <vehicle id="veh48" type="veh_passenger" depart="317.12" departLane="best" departSpeed="max">
        <route edges="-504465240#3 -504465240#1 -504465240#0 506359668#1 506359668#2 506359668#4 506359668#6 374332377#0 374332377#1 374332377#2 374332377#4 329022964#0 329022964#1 329022964#3 329022964#4 329022964#6 311138395 144500733 -374332365#2 374332365#1"/>
    </vehicle>
    <vehicle id="veh50" type="veh_passenger" depart="330.34" departLane="best">
        <route edges="374332377#0 374332377#1 374332377#2 374332377#4 51268689#0 51268689#4 51268689#5 51268689#6 51268689#7 51268689#9 51268689#10 51268695#3 51268695#4 -51268695#4"/>
    </vehicle>
    <vehicle id="veh52" type="veh_passenger" depart="343.55" departLane="best">
        <route edges="374427266 374427272 -374427263#2 374427263#2 232359756 374427262#0 -374427262#0 189615566 374427273#0 374427273#1 374427273#2 506359662#1 506359662#2 506359662#3 506359662#4 506359672#0 506359672#1 506359672#2 506359672#3 238710697#1 238710697#3 238710697#4 238710697#6 238710697#7 238710697#8 238710697#9 238710698#1 238710698#2 238710698#4 238710698#5 238710698#6 238710698#7 238710698#8 238710698#9 238710698#10 238710698#11 -51268678#23"/>
    </vehicle>
    <vehicle id="veh53" type="veh_passenger" depart="350.16" departLane="best">
        <route edges="506359672#1 506359672#2 506359672#3 506359679#1 506359679#3 506359676#1 506359676#2 506359676#3 506359668#1 506359668#2 506359668#4 506359668#6 374332377#0 374332377#1 374332377#2 374332377#4 329022964#0 329022964#1 329022964#3 329022964#4 329022964#6 311138395 144500733 264589677 374332385#0 374332385#1 374332385#2 374332385#5"/>
    </vehicle>
    <vehicle id="veh54" type="veh_passenger" depart="356.76" departLane="best">
        <route edges="506389480#1 506389480#3 506389480#4 244618574 506359679#1 506359679#3 506359676#1 506359676#2 506359676#3 506359668#1 506359668#2 506359668#4 506359668#6 374332377#0 374332377#1 374332377#2 374332377#4 329022964#0 329022964#1 329022964#3 329022964#4 329022964#6 311138395 144500733 264589677 374332385#0 374332385#1"/>
    </vehicle>
    <vehicle id="veh55" type="veh_passenger" depart="363.37" departLane="best">
        <route edges="-103532303#0 103532303#0 103532303#1 103532303#2 103532303#3 -51268695#7 -51268695#6 -51268695#5 -51268695#4 -51268695#3 -51268695#1 -51268695#0 -442655084#1 51268702#10 51268701#0 51268701#1 51268701#2 51268701#3 51268701#4 51268701#5 51268701#6 506359668#1 506359668#2 506359668#4 506359668#6 374427272 232359746"/>
    </vehicle>
    <vehicle id="veh56" type="veh_passenger" depart="369.98" departLane="best">
        <route edges="51268689#7 51268689#9 51268689#10 -51268695#1 -51268695#0 -442655084#1 -51268702#8 -51268702#7 -51268702#5 -51268702#4 -51268702#2 51268670#1 51268670#2 51268670#4 51268670#5 51268670#6 51268670#8 51268670#10"/>
    </vehicle>
    <vehicle id="veh57" type="veh_passenger" depart="376.59" departLane="best" departSpeed="max">
        <route edges="232361463#0 232361463#1 232361463#3 232361463#4 232361463#6 232361463#7 232361463#8 238710698#1 238710698#2 238710698#4 238710698#5 238710698#6 238710698#7 238710698#8 238710698#9 238710698#10 238710698#11 -557563419#14 -557563419#13 -557563419#12 -557563419#11 -557563419#10 -557563419#9 -557563419#8 -557563419#7 -557563419#6 -557563419#5 144500729#0 144500729#2 144500729#4 144500729#5 144500729#7 144500733 -374332365#2"/>
    </vehicle>
    <vehicle id="veh58" type="veh_passenger" depart="383.19" departLane="best">
        <route edges="51268689#7 51268689#9 51268689#10 51268695#3 51268695#4 51268695#5 51268695#6 51268695#7 -103532303#3 -103532303#2 -103532303#1 -103532303#0 -103534039#3 -103534039#2 144500729#5 144500729#7 144500733 264589677 374332389 374332388 374332390#3 51268713#0"/>
    </vehicle>
    <vehicle id="veh60" type="veh_passenger" depart="396.41" departLane="best">
        <route edges="-377740862#2 377740862#2 377740862#3 377740862#4 377740862#5 506389480#3 506389480#4 244618574 506359679#1 506359679#3 506359676#1 506359676#2 506359676#3 506359668#1 506359668#2 506359668#4 506359668#6 374332377#0 374332377#1 374332377#2 374332377#4 30337330 374332363 374332375#0 374332375#1 374332375#2 374332375#3 374427267#0 374427267#2 374332370 374427265#0 374427265#1 49710852#1 -49710859#1 506316037#5"/>
    </vehicle>
    <vehicle id="veh61" type="veh_passenger" depart="403.01" departLane="best">
        <route edges="506359672#3 238710697#1 238710697#3 238710697#4 238710697#6 238710697#7 238710697#8 238710697#9 238710698#1 238710698#2 238710698#4 238710698#5 238710698#6 238710698#7 238710698#8 238710698#9 238710698#10 238710698#11 -557563419#14 -557563419#13 -557563419#12 -557563419#11 -51268653"/>
    </vehicle>
    <vehicle id="veh62" type="veh_passenger" depart="409.62" departLane="best">
        <route edges="374332370 374427270 374427262#0 -374427262#0 -232359756 -374427263#2 -374427263#1 -374332367#2 -374332367#0 -374332369#3 -374332369#2 -51268681#3 -51268681#1 329022964#3 329022964#4 329022964#6 311138395 144500733 264589677 374332385#0 374332385#1 374332385#2 374332385#5 374332385#6 374332385#7"/>
    </vehicle>
    <vehicle id="veh63" type="veh_passenger" depart="416.23" departLane="best">
        <route edges="144500729#5 144500729#7 144500733 -374332365#2 374332365#1 264484756 232361473 144500732#0 144500732#1 144500732#2 144500732#3 144500732#5 144500732#6 557563419#5 557563419#6 557563419#7 557563419#8 557563419#9 557563419#10 557563419#11 557563419#12 557563419#13 557563419#14 51268676#0 51268676#1 51268676#3 51268676#4 51268676#6 51268676#7 51268702#2 51268679#0 51268679#1 51268679#2 51268679#3"/>
    </vehicle>
    <vehicle id="veh64" type="veh_passenger" depart="422.83" departLane="best">
        <route edges="313675767#6 51420575#1 51420575#2 51420575#3 51420575#4 51268670#5 51268670#6 51420546#1 51420546#2 51420546#3 51420546#5 51420546#6 51420546#8 51420546#9 -51268678#11 -51268678#10 -557566168#8 -557566168#7 -51420502#2"/>
    </vehicle>
    <vehicle id="veh65" type="veh_passenger" depart="429.44" departLane="best">
        <route edges="374332380#4 374332380#6 374332375#0 374332375#1 374332375#2 374332375#3 374427267#0 374427267#2 374332370 374427265#0 374427265#1 49710852#1 -49710859#1 49710859#1"/>
    </vehicle>
    <vehicle id="veh66" type="veh_passenger" depart="436.05" departLane="best">
        <route edges="-51420502#2 -51420502#1 -51420502#0 51268650#5 51268650#6 51268678#22 51268678#23 51268676#0 51268676#1 51268676#3 51268676#4 51268675#1 51268675#2 51268675#3 51268675#4 51268675#5 51268675#6 51268675#7 -51268695#1 -51268695#0 51268696#0 51268696#1 51268696#2 51268696#3 51268696#4 374332377#2 374332377#4 30337330 374332363 374332375#0 374332375#1 451928555#1 155804118#1"/>
    </vehicle>
    <vehicle id="veh68" type="veh_passenger" depart="449.26" departLane="best">
        <route edges="-51268650#4 51268653 -557563419#10 -557563419#9 -557563419#8 -557563419#7 -557563419#6 -557563419#5 -557563419#3"/>
    </vehicle>
    <vehicle id="veh69" type="veh_passenger" depart="455.87" departLane="best">
        <route edges="238710698#2 51268676#6 51268676#7 232361464#2 232361464#3 232361464#4 232361464#7 232361464#8 232361464#10 506359679#1 506359679#3 506359676#1 506359676#2 506359676#3 506359668#1 506359668#2 506359668#4 506359668#6 374427272 -374427263#2 374427263#2 232359756 374427262#0 374427264#0"/>
    </vehicle>
    <vehicle id="veh70" type="veh_passenger" depart="462.47" departLane="best" departSpeed="max">
        <route edges="-776507972#1 506359662#2 506359662#3 506359662#4 506359672#0 506359672#1 506359672#2 506359672#3 238710697#1 238710697#3 238710697#4 238710697#6 238710697#7 238710697#8 238710697#9 238710698#1 238710698#2 238710698#4 238710698#5 238710698#6 238710698#7 238710698#8 238710698#9 238710698#10 238710698#11 -557563419#14 -557563419#13 -557563419#12 -557563419#11"/>
    </vehicle>
    <vehicle id="veh71" type="veh_passenger" depart="469.08" departLane="best">
        <route edges="-377740862#4 377740862#4 377740862#5 506389480#3 506389480#4 244618574 506359679#1 506359679#3 506359676#1 506359676#2 506359676#3 506359668#1 506359668#2 506359668#4 506359668#6 374427272 -374427263#2 374427263#2 232359756 374427262#0 -374427262#0 189615566 374427273#0 374427273#1"/>
    </vehicle>
    <vehicle id="veh72" type="veh_passenger" depart="475.69" departLane="best" departSpeed="max">
        <route edges="-776507972#1 506359662#2 506359662#3 506359662#4 506359676#1 506359676#2 506359676#3 -51268701#6 -51268701#5 -51268701#4 -51268701#3 -51268701#2 -51268701#1 -51268701#0 190680558#1 -494997377#2 51268696#1 51268696#2"/>
    </vehicle>
    <vehicle id="veh73" type="veh_passenger" depart="482.29" departLane="best">
        <route edges="51268679#1 51268679#2 51268679#3 506359676#1 506359676#2 506359676#3 506359668#1 506359668#2 506359668#4 506359668#6 374427272 -374427263#2 374427263#2 232359756 374427262#0 -374427262#0"/>
    </vehicle>
    <vehicle id="veh74" type="veh_passenger" depart="488.90" departLane="best">
        <route edges="103532303#0 -103532303#0 -103534039#3 -103534039#2 144500729#5 144500729#7 144500733 264589677 374332389 374332388 374332390#3 51268713#0 51268708#2 51268708#3 451928557#0 51268714#1 51268714#2 51268714#3 451928560#0"/>
    </vehicle>
    <vehicle id="veh75" type="veh_passenger" depart="495.51" departLane="best">
        <route edges="-557563419#5 557563419#5 557563419#6 557563419#7 557563419#8 557563419#9 557563419#10 557563419#11 557563419#12 557563419#13 557563419#14 -51268678#23 -51268678#22 -51268678#17 -51268678#16 -51268678#15 -51268678#14 -51268678#13 -51268678#12 -51420546#9 -51420546#8 -51268658"/>
    </vehicle>
    <vehicle id="veh76" type="veh_passenger" depart="502.11" departLane="best">
        <route edges="374332369#3 374332367#0 374332367#1 374427263#0 374427263#2 232359756 374427262#0 -374427262#0 189615566 374427273#0 374427273#1 374427273#2 506359662#1 506359662#2 506359662#3 506359662#4 506359672#0 506359672#1 506359672#2"/>
    </vehicle>
    <vehicle id="veh77" type="veh_passenger" depart="508.72" departLane="best">
        <route edges="51268650#6 51268678#22 51268678#23 51268676#0 51268676#1 51268676#3 51268676#4 51268676#6 51268676#7 51268702#2 51268702#4 51268702#5 51268702#7 51268702#8 51268702#10 -51268702#10"/>
    </vehicle>
    <vehicle id="veh78" type="veh_passenger" depart="515.33" departLane="best" departSpeed="max">
        <route edges="-49710859#3 -49710859#2 -49710859#1 506316037#5 506316037#7 374427270 374427262#0 -374427262#0 -232359756 -374427263#2 -374427263#1 -374332367#2 -374332367#0 -374332369#3 -374332369#2 -374332364#1 374332364#0"/>
    </vehicle>
    <vehicle id="veh79" type="veh_passenger" depart="521.93" departLane="best">
        <route edges="313675767#6 244618574 506359679#1 506359679#3 506359676#1 506359676#2 506359676#3 506359668#1 506359668#2 506359668#4 506359668#6 374332377#0 374332377#1 374332377#2 374332377#4 30337330 374332363 374332375#0 374332375#1 374332375#2 374332375#3"/>
    </vehicle>
    <vehicle id="veh80" type="veh_passenger" depart="528.54" departLane="best" departSpeed="max">
        <route edges="506316037#0 506316037#1 506316037#2 506316037#3 506316037#4 506316037#5 506316037#7 374427270 374427262#0 -374427262#0 -232359756 -374427263#2 -374427263#1 -374332367#2 -374332367#0 374332363 374332362#1 374332362#4 374332362#5 374332387#0 374332387#1 374332387#2 374332387#3 374332387#5 51268708#2 51268708#3 451928557#0 51268714#1 51268714#2 51268714#3 451928560#0 451928560#1 451928562"/>
    </vehicle>
    <vehicle id="veh81" type="veh_passenger" depart="535.15" departLane="best">
        <route edges="557566168#7 557566168#8 51268678#10 51268678#11 -51420546#9 -51420546#8 -51420546#6 -51420546#5 -51420546#3 -51420546#2 -51420546#1 232361463#3 232361463#4 232361463#6 232361463#7 232361463#8 51268702#2 51268702#4 51268702#5 51268702#7 51268702#8 51268702#10 190680558#1 -494997377#2 51268696#1 51268696#2 51268696#3 51268696#4 374332377#2 374332377#4 30337330 374332363 374332362#1 374332362#4 374332362#5 -452116335#4 -452116335#3"/>
    </vehicle>
    <vehicle id="veh82" type="veh_passenger" depart="541.75" departLane="best" departSpeed="max">
        <route edges="310849377#0 506389480#1 506389480#3 506389480#4 244618574 238710697#1 238710697#3 238710697#4 232361464#7 232361464#8"/>
    </vehicle>
    <vehicle id="veh83" type="veh_passenger" depart="548.36" departLane="best">