<?xml version="1.0" encoding="UTF-8"?>

<!-- generated on 11/29/20 23:16:13 by Eclipse SUMO duarouter Version 1.7.0
<configuration xmlns:xsi="http://www.w3.org/2001/XMLSchema-instance" xsi:noNamespaceSchemaLocation="http://sumo.dlr.de/xsd/duarouterConfiguration.xsd">

    <input>
        <net-file value="D:\github\sumo-learning\2020-11-29-23-10-51\osm.net.xml"/>
        <route-files value="D:\github\sumo-learning\2020-11-29-23-10-51\osm.passenger.trips.xml"/>
    </input>

    <output>
        <output-file value="routes.rou.xml"/>
        <alternatives-output value="routes.rou.alt.xml"/>
    </output>

    <time>
        <begin value="0"/>
        <end value="1001"/>
    </time>

    <report>
        <no-warnings value="true"/>
        <ignore-errors value="true"/>
        <no-step-log value="true"/>
    </report>

</configuration>
-->

<routes xmlns:xsi="http://www.w3.org/2001/XMLSchema-instance" xsi:noNamespaceSchemaLocation="http://sumo.dlr.de/xsd/routes_file.xsd">
    <vType id="veh_passenger" vClass="passenger"/>
    <vehicle id="veh0" type="veh_passenger" depart="0.00" departLane="best">
        <route edges="-755551646#1 755551646#1 755551646#2 43156728#2 120675240#0 120675240#3 120675240#4 -4611696#4 -4611696#3 -23755950#4 -23755950#1 -23755950#0 -66071366#3 4773029#0 4773029#1 4773029#2 28251222#0 28251222#1 169195795#4 169195795#5 169195795#6 169195795#7 169195795#8 169195795#9 340498988#0 169999355#0 -11483007#2 22972195#2 465376239 465376255#2 190447767 190447766#1 4402228 465376254 222328410 -6228081 541295974 153698390#1 -750204886"/>
    </vehicle>
    <vehicle id="veh1" type="veh_passenger" depart="2.34" departLane="best">
        <route edges="415280722 195401013#2 195401013#3 24914992#1 171826985#1 171826985#3 -534588621#1 -534588621#0 606078071#0 606078071#3 61583423#0 61583423#1 -751595930 -156364553#0 60333311#1 60333311#2 289966097 289966281 344594961"/>
    </vehicle>
    <vehicle id="veh2" type="veh_passenger" depart="4.67" departLane="best">
        <route edges="606078066#0 72157172 61583424#0 61583424#1 534588621#0 534588621#1 4773465#1 4773465#2 4773465#3 490365295#0 490365295#1 -156364570#3 -156364570#1 -156364570#0 25294728 234463931#1 -234463931#1"/>
    </vehicle>
    <vehicle id="veh3" type="veh_passenger" depart="7.01" departLane="best">
        <route edges="171826985#3 -534588621#1 -534588621#0 606078071#0 606078071#3 -751595928#1 -136571494#4"/>
    </vehicle>
    <vehicle id="veh4" type="veh_passenger" depart="9.35" departLane="best">
        <route edges="-4612968#0 840860363#1 606078065 156364553#1 606078066#0 72157172 61583424#0 61583424#1 534588621#0 534588621#1 24913519#1 24913519#2 541763975 202156995#0 202156995#1 4067932#1 541763974 61584187#1 61584187#2 61584187#3 61584187#4 54048863 15971197#0 15971197#1 751602168 169195795#0 169195795#1 169195795#4 169195795#5 169195795#6 169195795#7 169195795#8 169195795#9 340498988#0 188386313#0 188386313#2 153698380#0 292429062#0 292429062#1 292429062#2 292429062#3 24242892#2"/>
    </vehicle>
    <vehicle id="veh5" type="veh_passenger" depart="11.69" departLane="best">
        <route edges="-156364570#1 156364570#1 156364570#2 156364556#1 202157002#1 202157002#2 -534588621#1 -534588621#0 606078071#0 606078071#3 61583423#0 61583423#1 -751595930 -156364553#0 156364566#1 60333309#0 60333309#1 24992424#0 -82658674#4 -82658674#2 -4612970#1 -4612970#0"/>
    </vehicle>
    <vehicle id="veh6" type="veh_passenger" depart="14.02" departLane="best">
        <route edges="309155392 195407521 309147331#0 344594962 312357351#0 312357351#1 309479676 4611726 82649618 819027709#0 606078065 156364553#1 606078066#0 72157172 61583424#0 61583424#1 534588621#0 534588621#1 72157174#1 171826984#2 195401006 195401017#5 139877314#1 112128419#1 112128419#2 415280722 195401013#2 195401013#3 24914992#1"/>
    </vehicle>
    <vehicle id="veh7" type="veh_passenger" depart="16.36" departLane="best">
        <route edges="-4612968#3 -4612968#2 -4612968#1 -4612968#0 840860363#1 606078065 156364553#1 606078066#0 72157172 61583424#0 61583424#1 534588621#0 534588621#1 72157174#1 171826984#2 195401006 195401017#5 139877314#1 100405009#1 100405009#2 100405009#3 100405009#4 305093247#0"/>
    </vehicle>
    <vehicle id="veh9" type="veh_passenger" depart="21.04" departLane="best">
        <route edges="4612961#0 4612961#1 830728708#3 830728708#4 830728708#5 -24992424#5 -24992424#2 840860363#0 840860363#1 606078065 156364553#1 606078066#0 72157172 61583424#0 61583424#1 534588621#0 534588621#1 4773465#1 4773465#2 4773465#3 490365295#0 490365295#1 -156364570#3 -156364570#1 -156364570#0 -387892378 -370359204#1 -370359204#0 -743631784 -316746323#0 46140376#0 46140376#1 -84960597#1 -84960597#0 -36892597#1 36892597#1"/>
    </vehicle>
    <vehicle id="veh10" type="veh_passenger" depart="23.37" departLane="best" departSpeed="max">
        <route edges="122820534#0 122820534#1 340498976#5 340498976#7 340498976#9 83517339 -4610480 -168937986#5 -168937986#4 -168937986#3 -168937986#1 169195795#0 169195795#1 340498982#8 340498982#9 -4610524 66071379#1 66071370 23755950#0 23755950#1 23755950#2 4611696#1 4611696#4 4611696#5 -120675240#3 -120675240#2 -43156728#4 -43156728#0"/>
    </vehicle>
    <vehicle id="veh11" type="veh_passenger" depart="25.71" departLane="best">
        <route edges="82654055#0 606078065 156364553#1 606078066#0 72157172 61583424#0 61583424#1 534588621#0 534588621#1 24913519#1 24913519#2 541763975 202156995#0 202156995#1 4067932#1 541763974 61584187#1 61584187#2 61584187#3 61584187#4 54048863 15971197#0 15971197#1 751602168 169195795#0 169195795#1 169195795#4 169195795#5"/>
    </vehicle>
    <vehicle id="veh12" type="veh_passenger" depart="28.05" departLane="best" departSpeed="max">
        <route edges="4790799 312357351#0 312357351#1 309479676 4611726 82649618 819027709#0 606078065 156364553#1 606078066#0 72157172 61583424#0 61583424#1 534588621#0 534588621#1 4773465#1 4773465#2 4773465#3 490365295#0 490365295#1 -156364570#3 -156364570#1 -156364570#0 -387892378 -370359204#1 -370359204#0 -743631784 -316746323#0 -84960595 183415643 46140382 30721660#1 30721660#2 30721660#3"/>
    </vehicle>
    <vehicle id="veh13" type="veh_passenger" depart="30.39" departLane="best">
        <route edges="4612961#1 830728708#3 830728708#4 830728708#5 -24992424#5 -24992424#2 840860363#0 840860363#1 606078065 156364553#1 606078066#0 72157172 61583424#0 61583424#1 534588621#0 534588621#1 24913519#1 24913519#2 541763975 202156995#0 202156995#1 4067932#1 541763974 61584187#1 61584187#2 61584187#3 61584187#4 54048863 15971197#0 15971197#1 751602168 169195795#0 169195795#1 169195795#4 169195795#5 169195795#6 169195795#7 169195795#8 169195795#9 340498988#0 188386313#0 188386313#2 155186522 24913267#0 24913267#3 4402014#0"/>
    </vehicle>
    <vehicle id="veh14" type="veh_passenger" depart="32.72" departLane="best">
        <route edges="24243052#1 24243052#2 24243052#3 24243052#4 24243052#5 465376240#0 195411604 83517336#0 83517336#2 153698394#1 153698394#2 340498982#0 340498982#2 340498982#3 340498982#4 340498982#5 340498982#8 340498982#9 354528932 251884680 339201217#1 54048862#0 54048862#1 54048862#3 831694400 23013165#1 23013165#2 4611698#1 202156994#0 -534588621#1 -534588621#0 606078071#0 606078071#3 61583423#0 61583423#1 -751595930 -156364553#0 156364566#1 60333309#0 60333309#1 24992424#0 24992424#3 4612961#0 4612961#1 830728708#3"/>
    </vehicle>
    <vehicle id="veh15" type="veh_passenger" depart="35.06" departLane="best" departSpeed="max">
        <route edges="165415464#0 -437325048#1 -560370523 -437325047#5 -437325047#3 -437325047#2 -437325047#0 4610362#0 4610362#1 4610362#2 4610362#3 4610362#4 4610362#5 4610362#6 4610362#7 4610362#8 30721662#0 30721662#1 30721662#2 30721662#3 831659093#0 831659093#1 23809670#1 23809670#2 23809670#3 28016312#0 28016312#1 -156364570#3 -156364570#1 -156364570#0 25294728"/>
    </vehicle>
    <vehicle id="veh16" type="veh_passenger" depart="37.40" departLane="best">
        <route edges="46140376#0 46140376#1 83517332#1 83517332#2 84960595 316746323#0 316746323#1 370359204#0 370359204#1 370359204#2 77348147 156364570#1 156364570#2 156364556#1 202157002#1 202157002#2 -534588621#1 -534588621#0 606078071#0 606078071#3 61583423#0 61583423#1 -751595930 -156364553#0 60333311#1 60333311#2 289966097 289966281 4612965 310176513#0 310176513#1"/>
    </vehicle>
    <vehicle id="veh17" type="veh_passenger" depart="39.73" departLane="best" departSpeed="max">
        <route edges="-4613293 -55741054 -168942727#3 -168942727#2 -168942727#1 -168942727#0 -743631784 -316746323#0 -84960595 183415643 46140382 30721660#1 30721660#2 30721660#3 30721660#4 30721660#5 437325047#0 437325047#2 437325047#3 437325047#5 560370523 437325048#0 -437325054#1 -24243107#2 -24243107#1 -24243107#0 -24243101 -137630045 137630045"/>
    </vehicle>
    <vehicle id="veh19" type="veh_passenger" depart="44.41" departLane="best" departSpeed="max">
        <route edges="-23813206#2 -23813206#1 -23813206#0 24990040 415280722 195401013#2 195401013#3 24914992#1 171826985#1 171826985#3 -534588621#1 -534588621#0 606078071#0 606078071#3 -751595928#1 -136571494#4 -136571494#3 -136571494#2 -136571494#1 -136571494#0 -202817674#3 -202817674#2 120675240#0"/>
    </vehicle>
    <vehicle id="veh20" type="veh_passenger" depart="46.75" departLane="best">
        <route edges="305153173 4611693#0 4611693#1 43231842#0 43231842#1 43231842#2 43231842#3 -474362271 -66071379#0 354528932 251884680 339201217#1 54048862#0 54048862#1 54048862#3 831694400 23013165#1 23013165#2 4611698#1 202156994#0 4773465#1 4773465#2 4773465#3 490365295#0 490365295#1 -156364570#3 -156364570#1 -156364570#0 -387892378 -370359204#1 -370359204#0 -743631784 -316746323#0 -84960595 183415643"/>
    </vehicle>
    <vehicle id="veh21" type="veh_passenger" depart="49.08" departLane="best">
        <route edges="156364570#2 156364556#1 202157002#1 202157002#2 -534588621#1"/>
    </vehicle>
    <vehicle id="veh22" type="veh_passenger" depart="51.42" departLane="best">
        <route edges="-66071370 -474362271 -66071379#0 354528932 251884680 339201217#1 54048862#0 54048862#1 54048862#3 831694400 23013165#1 23013165#2 4611698#1 202156994#0 -534588621#1 -534588621#0 606078071#0 606078071#3 61583423#0 61583423#1 -751595930 -156364553#0 60333311#1 60333311#2 289966097 289966281 289830064 289966845 289967595#0 82659290#0 66311464#1 82639450"/>
    </vehicle>
    <vehicle id="veh23" type="veh_passenger" depart="53.76" departLane="best">
        <route edges="-34848160#1 -34848160#0 222328410 -6228081 541295974 30720544#0 30720544#1 -168940071#3 -168940071#2 -168940071#1 -168940071#0 24243107#2 437325054#0"/>
    </vehicle>
    <vehicle id="veh24" type="veh_passenger" depart="56.10" departLane="best">
        <route edges="-326116286#2 -24913267#2 342968607#1 461526152#0 340498982#0 340498982#2 340498982#3 340498982#4 340498982#5 340498982#8 340498982#9 354528932 251884680 339201217#1 54048862#0 54048862#1 54048862#3 831694400 23013165#1 23013165#2 4611698#1 202156994#0 -534588621#1 -534588621#0 606078071#0 606078071#3 61583423#0 61583423#1 -751595930 -156364553#0 60333311#1 60333311#2 289966097 289966281 289830064 289966845 289967595#0 82659290#0 24540242#1 188044903#0"/>
    </vehicle>
    <vehicle id="veh26" type="veh_passenger" depart="60.77" departLane="best" departSpeed="max">
        <route edges="24914141#0 318282850#2 112128419#1 112128419#2 415280722 195401013#2 195401013#3 24914992#1 171826985#1 171826985#3 24913519#1 24913519#2 541763975 202156995#0 202156995#1 4067932#1 541763974 61584187#1 61584187#2 61584187#3 61584187#4 54048863 15971197#0 15971197#1 751602168 169195795#0 169195795#1 169195795#4 169195795#5 169195795#6 169195795#7 169195795#8 169195795#9 340498988#0 169999355#0 -11483007#2 22972195#2 465376239 465376255#2 190447767 190447766#1 4402228 465376254 34848160#0 34848160#1 34848160#2"/>
    </vehicle>
    <vehicle id="veh27" type="veh_passenger" depart="63.11" departLane="best">
        <route edges="4773465#2 4773465#3 490365295#0 490365295#1 156364556#1 202157002#1 202157002#2 24913519#1 24913519#2 541763975 202156995#0 202156995#1 4067932#1 541763974 61584187#1 61584187#2 61584187#3 61584187#4 54048863 15971197#0 15971197#1 751602168 169195795#0 169195795#1 340498982#8 340498982#9 -4610524 66071379#1 66071370 4611713"/>
    </vehicle>
    <vehicle id="veh28" type="veh_passenger" depart="65.44" departLane="best">
        <route edges="-4611696#3 4611696#1 54781811#0 54781811#1 305153174 43230886 4611694#0 4611694#1 251884680 339201217#1 54048862#0 54048862#1 54048862#3 831694400 23013165#1 23013165#2 4611698#1 202156994#0 -534588621#1 -534588621#0 606078071#0 606078071#3 61583423#0 61583423#1 -751595930 -156364553#0 60333311#1 60333311#2 289966097 289966281 289830064 289966845 289967595#0 82659290#0 66311464#1 82639450"/>
    </vehicle>
    <vehicle id="veh29" type="veh_passenger" depart="67.78" departLane="best">
        <route edges="54698846#0 54698846#1 54698846#2 4612973#0 4612973#1 82658674#2 82658674#3 -24992424#2 840860363#0 840860363#1 606078065 156364553#1 606078066#0 72157172 61583424#0 61583424#1 534588621#0 534588621#1 24913519#1 24913519#2 541763975 202156995#0 202156995#1 4067932#1 541763974 61584187#1 61584187#2 61584187#3 61584187#4 54048863 15971197#0 15971197#1 751602168 168937986#1 168937986#3 168937986#4"/>
    </vehicle>
    <vehicle id="veh30" type="veh_passenger" depart="70.12" departLane="best">
        <route edges="310176513#0 -310176513#0 -4612965 289830064 289966845 289967595#0 82659290#0 30826268#1 316092515 309155392 195407521 309147331#0 344594962 312357351#0 312357351#1 309479676 4611726 82649618 819027709#0 606078065 156364553#1 606078066#0 72157172 61583424#0 61583424#1 534588621#0 534588621#1 4773465#1 4773465#2 4773465#3 490365295#0 490365295#1 -156364570#3 -156364570#1 -156364570#0 25294728 234463931#1 234463931#2 234463931#3 234463931#4 234463931#5 234463931#6 234463928#1 55741054 19002363#3 19002363#4 19002363#6"/>
    </vehicle>
    <vehicle id="veh31" type="veh_passenger" depart="72.46" departLane="best">
        <route edges="66071373#1 340498982#0 340498982#2 340498982#3 340498982#4 340498982#5 340498982#8 340498982#9 354528932 251884680 339201217#1 54048862#0 54048862#1 54048862#3 -23121445#5 23121445#5"/>
    </vehicle>
    <vehicle id="veh32" type="veh_passenger" depart="74.79" departLane="best">
        <route edges="-66071366#0 66071366#0 66071366#1 66071366#2 23755950#0 23755950#1 23755950#2 4611696#1 54781811#0 54781811#1 305153174 43230886 4611694#0 4611694#1 251884680 339201217#1 54048862#0 54048862#1 54048862#3 831694400 23013165#1 23013165#2 4611698#1 202156994#0 72157174#1 171826984#2 195401006 195401017#5 139877314#1 100405009#1"/>
    </vehicle>
    <vehicle id="veh33" type="veh_passenger" depart="77.13" departLane="best" departSpeed="max">
        <route edges="24914141#0 318282850#2 112128418#1"/>
    </vehicle>
    <vehicle id="veh34" type="veh_passenger" depart="79.47" departLane="best">
        <route edges="24992424#0 -24992424#2 840860363#0 840860363#1 606078065 156364553#1 606078066#0 72157172 61583424#0 61583424#1 534588621#0 534588621#1 4773465#1 4773465#2 4773465#3 490365295#0 490365295#1 -156364570#3 -156364570#1 -156364570#0 -387892378 -370359204#1 -370359204#0 -743631784 -316746323#0 -84960595 183415643 46140382 30721660#1 30721660#2 30721660#3 30721660#4 30721660#5 437325047#0 437325047#2 437325047#3 437325047#5 560370523 437325048#0 -437325054#1 -6227658#3 -6227658#2 6227658#2"/>
    </vehicle>
    <vehicle id="veh35" type="veh_passenger" depart="81.81" departLane="best">
        <route edges="84960597#1 83517332#1 83517332#2 84960595 316746323#0 316746323#1 370359204#0 370359204#1 370359204#2 77348147 156364570#1 156364570#2 156364556#1 202157002#1 202157002#2 24913519#1 24913519#2 541763975 202156995#0 202156995#1 4067932#1 541763974 61584187#1 61584187#2 61584187#3 61584187#4 54048863 15971197#0 15971197#1 751602168 169195795#0 169195795#1 169195795#4 169195795#5 169195795#6 169195795#7 169195795#8 169195795#9 340498988#0 188386313#0 188386313#2 24913304#1 -4402037#1 -4402037#0 24242892#5"/>
    </vehicle>
    <vehicle id="veh36" type="veh_passenger" depart="84.14" departLane="best">
        <route edges="-234463931#2 -234463931#1 -234463931#0 77348147 156364570#1 156364570#2 156364556#1 202157002#1 202157002#2 24913519#1 24913519#2 541763975 202156995#0 202156995#1 4067932#1 541763974 61584187#1 61584187#2 61584187#3 61584187#4 54048863 15971197#0 15971197#1 751602168 168937986#1 168937986#3 168937986#4 -168937986#4"/>
    </vehicle>
    <vehicle id="veh37" type="veh_passenger" depart="86.48" departLane="best">
        <route edges="-24242882#2 -24242882#1 243854725#4 66071373#1 340498982#0 340498982#2 340498982#3 340498982#4 340498982#5 340498982#8 340498982#9 354528932 251884680 339201217#1 54048862#0 54048862#1 54048862#3 831694400 23013165#1 23013165#2 4611698#1 202156994#0 -534588621#1 -534588621#0 606078071#0 606078071#3 61583423#0 61583423#1 -751595930 -156364553#0 60333311#1 60333311#2 289966097 289966281 289830064 289966845 289967595#0 82659290#0 30826268#1 316092515 309155392 312176585#1 312176585#2"/>
    </vehicle>
    <vehicle id="veh38" type="veh_passenger" depart="88.82" departLane="best">
        <route edges="4610600 339201177#1 339201177#2 339201177#3 339201177#4 339201177#5 23121445#0 23121445#1 23121445#2 23121445#3 23121445#4 23121445#5 831694400 23013165#1 23013165#2 4611698#1 202156994#0 72157174#1 171826984#2 195401006 195401017#5"/>
    </vehicle>
    <vehicle id="veh39" type="veh_passenger" depart="91.16" departLane="best">
        <route edges="-194962375#0 -751595929#0 -328920970 61583423#0 61583423#1 -751595930 -156364553#0 60333311#1 60333311#2 289966097 289966281 289830064 289966845 289967595#0 82659290#0 24540242#1 188044903#0"/>
    </vehicle>
    <vehicle id="veh40" type="veh_passenger" depart="93.49" departLane="best">
        <route edges="84960595 316746323#0 316746323#1 370359204#0 370359204#1 370359204#2 77348147 156364570#1 156364570#2 156364556#1 202157002#1 202157002#2 24913519#1 24913519#2 541763975 202156995#0 202156995#1 4067932#1 541763974 61584187#1 61584187#2 61584187#3 61584187#4 54048863 15971197#0 15971197#1 751602168 169195795#0 169195795#1 169195795#4 169195795#5 169195795#6 169195795#7 169195795#8 169195795#9 340498988#0 188386313#0 188386313#2 24913304#1"/>
    </vehicle>
    <vehicle id="veh41" type="veh_passenger" depart="95.83" departLane="best">
        <route edges="830728708#1 830728708#2 830728708#3 830728708#4 830728708#5 -24992424#5 -24992424#2 840860363#0 840860363#1 606078065 156364553#1 606078066#0 72157172 61583424#0 61583424#1 534588621#0 534588621#1 24913519#1 24913519#2 541763975"/>
    </vehicle>
    <vehicle id="veh42" type="veh_passenger" depart="98.17" departLane="best">
        <route edges="-128396190#1 4611726 82649618 819027709#0 606078065 156364553#1 606078066#0 72157172 61583424#0 61583424#1 534588621#0 534588621#1 24913519#1 24913519#2 541763975 202156995#0 202156995#1 4067932#1 541763974 61584187#1 61584187#2 61584187#3 61584187#4 54048863 15971197#0 15971197#1 751602168 169195795#0 169195795#1 340498982#8 340498982#9 -4610524 66071379#1 -43231842#3 -43231842#2 43231842#2"/>
    </vehicle>
    <vehicle id="veh43" type="veh_passenger" depart="100.50" departLane="best" departSpeed="max">
        <route edges="313039168 313195075 188047750 312514710#0 30826268#1 316092515 309155392 195407521 309147331#0 344594962 312357351#0 312357351#1 309479676 4611726 82649618 819027709#0 606078065 156364553#1 606078066#0 72157172 61583424#0 61583424#1 534588621#0 534588621#1 24913519#1 24913519#2 541763975 202156995#0 202156995#1 4067932#1 541763974 61584187#1 61584187#2 61584187#3 61584187#4 54048863 15971197#0 15971197#1 751602168 169195795#0 169195795#1 169195795#4 169195795#5 169195795#6 169195795#7 169195795#8 169195795#9 340498988#0 188386313#0 188386313#2 24913304#1 24913304#2"/>
    </vehicle>
    <vehicle id="veh45" type="veh_passenger" depart="105.18" departLane="best">
        <route edges="-24242892#3 -24242892#2 -292429062#3 -292429062#2 -292429062#1 -292429062#0 -153698380#2 155186522 342968607#1 461526152#0 340498982#0 340498982#2 340498982#3 340498982#4 340498982#5 340498982#8 340498982#9 354528932 251884680 339201217#1 54048862#0 54048862#1 54048862#3 -23121445#5 -23121445#4 -23121445#3 -23121445#2 -23121445#1 -23121445#0 202156991#0 202156991#1 202156991#2"/>
    </vehicle>
    <vehicle id="veh46" type="veh_passenger" depart="107.52" departLane="best">
        <route edges="194069450#0 194069450#1 461526152#0 340498982#0 340498982#2 340498982#3 340498982#4 340498982#5 340498982#8 340498982#9 354528932 251884680 339201217#1 54048862#0 54048862#1 54048862#3 831694400 23013165#1 23013165#2 4611698#1 202156994#0 -534588621#1 -534588621#0 606078071#0 606078071#3 61583423#0 61583423#1 -751595930 -156364553#0 156364566#1 60333309#0 60333309#1 24992424#0 24992424#3 4612961#0 4612961#1 4612961#2 344594966 82652397#0"/>
    </vehicle>
    <vehicle id="veh47" type="veh_passenger" depart="109.85" departLane="best">
        <route edges="541763975 202156995#0 202156995#1 4067932#1 831694400 23013165#1 23013165#2 4611698#1 202156994#0 72157174#1 171826984#2 195401006 195401017#5 139877314#1 112128418#1"/>
    </vehicle>
    <vehicle id="veh48" type="veh_passenger" depart="112.19" departLane="best">
        <route edges="23013165#2 4611698#1 202156994#0 24913519#1 24913519#2 541763975 202156995#0 202156995#1 4067932#1 541763974 61584187#1 61584187#2 61584187#3 61584187#4 54048863 15971197#0 15971197#1 751602168 169195795#0 169195795#1 169195795#4 169195795#5 169195795#6 169195795#7 169195795#8 169195795#9 340498988#0 -461526153 -194069450#3 -194069450#0 4588217 -4588217"/>
    </vehicle>
    <vehicle id="veh49" type="veh_passenger" depart="114.53" departLane="best">
        <route edges="66071366#1 66071366#2 23755950#0 23755950#1 23755950#2 4611696#1 54781811#0 54781811#1 305153174 43230886 4611694#0 4611694#1 251884680 339201217#1 54048862#0 54048862#1 54048862#3 831694400 23013165#1 23013165#2 4611698#1 202156994#0 -534588621#1 -534588621#0 606078071#0 606078071#3 61583423#0 61583423#1 -751595930 -156364553#0 156364566#1 60333309#0"/>
    </vehicle>
    <vehicle id="veh51" type="veh_passenger" depart="119.20" departLane="best">
        <route edges="292429062#0 -292429062#0 -153698380#2 155186522 342968607#1 461526152#0 340498982#0 340498982#2 340498982#3 340498982#4 340498982#5 340498982#8 340498982#9 354528932 251884680 339201217#1 54048862#0 54048862#1 54048862#3 831694400 23013165#1 23013165#2 4611698#1 202156994#0 4773465#1 4773465#2 4773465#3 490365295#0 490365295#1 -156364570#3 -156364570#1 -156364570#0 -387892378 -370359204#1"/>
    </vehicle>
    <vehicle id="veh52" type="veh_passenger" depart="121.54" departLane="best">
        <route edges="4610362#0 4610362#1 4610362#2 4610362#3 4610362#4 4610362#5 4610362#6 4610362#7 4610362#8 30721662#0 30721662#1 30721662#2 30721662#3 831659093#0 831659093#1 23809670#1 23809670#2 23809670#3 28016312#0 28016312#1 156364556#1 202157002#1 202157002#2 24913519#1 24913519#2 541763975 202156995#0 202156995#1 4067932#1 541763974 61584187#1 61584187#2 61584187#3 61584187#4 54048863 15971197#0 15971197#1 751602168 169195795#0 169195795#1 169195795#4 169195795#5 169195795#6 169195795#7 169195795#8 169195795#9 340498988#0 188386313#0 188386313#2 24913304#1 24913304#2"/>
    </vehicle>
    <vehicle id="veh53" type="veh_passenger" depart="123.88" departLane="best">
        <route edges="-136571494#4 136571494#4 136571494#5 328920970 61583424#0 61583424#1 534588621#0 534588621#1 4773465#1 4773465#2 4773465#3 490365295#0 490365295#1 -156364570#3 -156364570#1 -156364570#0 77348147"/>
    </vehicle>
    <vehicle id="veh54" type="veh_passenger" depart="126.22" departLane="best">
        <route edges="54781811#1 305153174 43230886 4611694#0 4611694#1 251884680 339201217#1 54048862#0 54048862#1 54048862#3 831694400 23013165#1 23013165#2 4611698#1 202156994#0 4773465#1 4773465#2 4773465#3 490365295#0"/>
    </vehicle>
    <vehicle id="veh55" type="veh_passenger" depart="128.55" departLane="best" departSpeed="max">
        <route edges="111833185#0 111833185#1 -11483007#2 22972195#2 465376239 465376255#2 190447767 190447766#1 4402228 465376254 222328410 -6228081 541295974 30720544#0 30720544#1 42103020#0 42103020#2 111251382#3 437325051#0 437325051#1 -176043794"/>
    </vehicle>
    <vehicle id="veh56" type="veh_passenger" depart="130.89" departLane="best">
        <route edges="54781811#0 54781811#1 305153174 43230886 4611694#0 4611694#1 251884680 339201217#1 54048862#0 54048862#1 54048862#3 831694400 23013165#1 23013165#2 4611698#1 202156994#0 -534588621#1 -534588621#0 606078071#0 606078071#3 61583423#0 61583423#1 -751595930 -156364553#0 60333311#1 60333311#2 289966097 289966281 289830064 289966845 289967595#0 82659290#0 66311464#1 82639450"/>
    </vehicle>
    <vehicle id="veh57" type="veh_passenger" depart="133.23" departLane="best">
        <route edges="-23121445#2 23121445#2 23121445#3 23121445#4 23121445#5 831694400 23013165#1 23013165#2 4611698#1 202156994#0 -534588621#1 -534588621#0 606078071#0 606078071#3 61583423#0 61583423#1 -751595930 -156364553#0 81112790#1 23851930"/>
    </vehicle>
    <vehicle id="veh58" type="veh_passenger" depart="135.56" departLane="best" departSpeed="max">
        <route edges="-195104960#2 -195104960#0 -195104956#0 -169660686#0 -705182550 -427637455 -153698390#1 -541295974 6228081 -222328410 -465376254 -4402228 190447768#1 195411602#1 465376240#0 195411604 83517336#0 83517336#2 83517336#3 83517336#4 340498976#1 340498976#2 -122820534#1 -122820534#0 4610479#0 4610479#1"/>
    </vehicle>
    <vehicle id="veh59" type="veh_passenger" depart="137.90" departLane="best">
        <route edges="4403559#2 31112516 -176043807#0 -176043806#1 -176043806#0 -437325051#1 -437325051#0 -111251382#3 541295978#1 389705415#1 -541295974 6228081 -222328410 -465376254 -4402228 190447768#1 195411602#1 465376240#0 195411604 83517336#0 83517336#2 153698394#1 153698394#2 340498982#0 340498982#2 340498982#3 340498982#4 340498982#5 340498982#8 340498982#9 354528932 251884680 339201217#1 54048862#0 54048862#1 54048862#3 831694400 23013165#1 23013165#2 4611698#1 202156994#0 -534588621#1 -534588621#0 606078071#0 606078071#3 61583423#0 61583423#1 -751595930 -156364553#0 60333311#1 60333311#2 289966097 289966281 4612965 310176513#0 310176513#1 310176513#2 -310176513#2"/>
    </vehicle>
    <vehicle id="veh60" type="veh_passenger" depart="140.24" departLane="best" departSpeed="max">
        <route edges="196850609#0 196850609#1 196850609#2 194069450#0 194069450#1 461526152#0 340498982#0 340498982#2 340498982#3 340498982#4 340498982#5 340498982#8 340498982#9 354528932 251884680 339201217#1 54048862#0 54048862#1 54048862#3 831694400 23013165#1 23013165#2 4611698#1 202156994#0 72157174#1 171826984#2 195401006 195401017#5 139877314#1 19002403#1 523630409 -24993933#4 24993933#2"/>
    </vehicle>
    <vehicle id="veh61" type="veh_passenger" depart="142.58" departLane="best">
        <route edges="-66071366#0 66071366#0 66071366#1 66071366#2 23755950#0 23755950#1 23755950#2 4611696#1 54781811#0 54781811#1 305153174 43230886 4611694#0 4611694#1 251884680 339201217#1 54048862#0 54048862#1 54048862#3 831694400 23013165#1 23013165#2 4611698#1 202156994#0 -534588621#1 -534588621#0 606078071#0 606078071#3 61583423#0 61583423#1 -751595930 -156364553#0 60333311#1"/>
    </vehicle>
    <vehicle id="veh62" type="veh_passenger" depart="144.91" departLane="best">
        <route edges="176043806#0 -176043806#0 -437325051#1 -437325051#0 -111251382#3 478432725 6227658#1 6227658#2 6227658#3 437325054#0 -437325048#1 -560370523"/>
    </vehicle>
    <vehicle id="veh63" type="veh_passenger" depart="147.25" departLane="best">
        <route edges="24243056 195105328#1 -292429063#1 -292429063#0 -292429062#3 -292429062#2 -292429062#1 -292429062#0 -153698380#2 155186522 24913267#0 24913267#3 4402014#0"/>
    </vehicle>
    <vehicle id="veh64" type="veh_passenger" depart="149.59" departLane="best">
        <route edges="844076875#0 -844076875#0 -176043807#0 -176043806#1 -176043806#0 -437325051#1 -437325051#0 -111251382#3 541295978#1 389705415#1 -541295974 6228081 -222328410 -465376254 -4402228 190447768#1 195411602#1 465376240#0 195411604 11483007#0 -169999355#2 188386313#0 188386313#2 155186522 24913267#0 24913267#3 4402014#0 4402014#3 326116285#0 326116285#2"/>
    </vehicle>
    <vehicle id="veh65" type="veh_passenger" depart="151.93" departLane="best">
        <route edges="188046016#0 30826268#1 316092515 309155392 195407521 309147331#0 344594962 312357351#0 312357351#1 309479676 4611726 82649618 819027709#0 606078065 156364553#1 606078066#0 72157172 61583424#0 61583424#1 534588621#0 534588621#1 24913519#1 24913519#2 541763975 202156995#0 202156995#1 4067932#1 541763974 61584187#1 61584187#2 61584187#3 61584187#4 54048863 15971197#0 15971197#1 751602168 169195795#0 169195795#1 169195795#4 169195795#5 169195795#6 169195795#7 114667396#0 -15977422#0 -195411605#0 -31313667#2 -31313667#1 -31313667#0 -492340367#0 -339201185 24243107#0 24243107#1"/>
    </vehicle>
    <vehicle id="veh66" type="veh_passenger" depart="154.26" departLane="best">
        <route edges="-243854725#4 243854725#4 66071373#1 340498982#0 340498982#2 340498982#3 340498982#4 340498982#5 340498982#8 340498982#9 354528932 251884680 339201217#1 54048862#0 54048862#1 54048862#3 831694400 23013165#1 23013165#2 4611698#1 202156994#0 -534588621#1 -534588621#0 606078071#0 606078071#3 328920970 751595929#0 -751595929#0"/>
    </vehicle>
    <vehicle id="veh67" type="veh_passenger" depart="156.60" departLane="best" departSpeed="max">