<?xml version="1.0" encoding="UTF-8"?>

<!-- generated on 11/20/20 16:39:05 by Eclipse SUMO duarouter Version 1.7.0
<configuration xmlns:xsi="http://www.w3.org/2001/XMLSchema-instance" xsi:noNamespaceSchemaLocation="http://sumo.dlr.de/xsd/duarouterConfiguration.xsd">

    <input>
        <net-file value="D:\nxshen\github\sumo-learning\2020-11-20-16-36-15\osm.net.xml"/>
        <route-files value="D:\nxshen\github\sumo-learning\2020-11-20-16-36-15\osm.passenger.trips.xml"/>
    </input>

    <output>
        <output-file value="routes.rou.xml"/>
        <alternatives-output value="routes.rou.alt.xml"/>
    </output>

    <time>
        <begin value="0"/>
        <end value="3600"/>
    </time>

    <report>
        <no-warnings value="true"/>
        <ignore-errors value="true"/>
        <no-step-log value="true"/>
    </report>

</configuration>
-->

<routes xmlns:xsi="http://www.w3.org/2001/XMLSchema-instance" xsi:noNamespaceSchemaLocation="http://sumo.dlr.de/xsd/routes_file.xsd">
    <vType id="veh_passenger" vClass="passenger"/>
    <vehicle id="veh0" type="veh_passenger" depart="0.00" departLane="best">
        <route edges="30721660#4 30721660#5 4610362#0 4610362#1 4610362#2 4610362#3 4610362#4 4610362#5 4610362#6 4610362#7 4610362#8 30721662#0 30721662#1 30721662#2 30721662#3 831659093#0 831659093#1 23809670#1 23809670#2 23809670#3 28016312#0 28016312#1 156364556#1 202157002#1 202157002#2 24913519#1 24913519#2 541763975 202156995#0 202156995#1 4067932#1 541763974 61584187#1 61584187#2 61584187#3 61584187#4 54048863 15971197#0 15971197#1 751602168 169195795#0 169195795#1 169195795#4 169195795#5 169195795#6 169195795#7 169195795#8 169195795#9 340498988#0 169999355#0 -11483007#2 22972195#2 465376239 465376255#2 190447767 190447766#1 4402228 465376254 222328410 -6228081 541295974 30720544#0 30720544#1 42103020#0 42103020#2 111251382#3 437325051#0 437325051#1 -176043794 -131505631#1 -131505631#0"/>
    </vehicle>
    <vehicle id="veh1" type="veh_passenger" depart="5.04" departLane="best">
        <route edges="-82658674#4 82658674#3 -24992424#2 840860363#0 840860363#1 606078065 156364553#1 606078066#0 72157172 -328920970 -751595928#1"/>
    </vehicle>
    <vehicle id="veh2" type="veh_passenger" depart="10.07" departLane="best">
        <route edges="42103020#2 541295978#1 389705415#1 -541295974 6228081 -222328410 -465376254 -4402228 190447768#1 195411602#1 465376240#0 195411604 83517336#0 83517336#2 153698394#1 153698394#2 340498982#0 340498982#2 340498982#3 340498982#4"/>
    </vehicle>
    <vehicle id="veh3" type="veh_passenger" depart="15.11" departLane="best">
        <route edges="606078066#0 72157172 61583424#0 61583424#1 534588621#0 534588621#1 4773465#1 4773465#2 4773465#3 490365295#0 490365295#1 -156364570#3 -156364570#1 -156364570#0 25294728 234463931#1 234463931#2 234463931#3 234463931#4 -234463931#4"/>
    </vehicle>
    <vehicle id="veh4" type="veh_passenger" depart="20.15" departLane="best" departSpeed="max">
        <route edges="187111590#0 19801548#2 188046016#0 30826268#1 316092515 309155392 195407521 309147331#0 344594962 312357351#0 312357351#1 309479676 4611726 82649618 819027709#0 606078065 156364553#1 606078066#0 72157172 -328920970 -751595928#1 -136571494#4 -136571494#3 -136571494#2"/>
    </vehicle>
    <vehicle id="veh5" type="veh_passenger" depart="25.18" departLane="best" departSpeed="max">
        <route edges="-4611706#1 -4611706#0 68647306#1 68647306#2 68647306#3 68647306#4 68647306#5 68647306#6 28251222#0 28251222#1 340498982#8 340498982#9 354528932 251884680 339201217#1 54048862#0 54048862#1 54048862#3 831694400 23013165#1 23013165#2 4611698#1 202156994#0 72157174#1 171826984#2 195401006 195401017#5 139877314#1 19002403#1 523630409 24241797#0 24241797#3"/>
    </vehicle>
    <vehicle id="veh6" type="veh_passenger" depart="30.22" departLane="best">
        <route edges="-156364570#0 77348147 156364570#1 156364570#2 156364556#1 202157002#1 202157002#2 -534588621#1 -534588621#0 606078071#0 606078071#3 61583423#0 61583423#1 -751595930 -156364553#0 156364566#1 60333309#0 60333309#1 24992424#0 24992424#3 4612961#0 4612961#1 -310176513#7 -310176513#6 4612974#0 -4612974#0"/>
    </vehicle>
    <vehicle id="veh7" type="veh_passenger" depart="35.26" departLane="best">
        <route edges="309479676 4611726 82649618 819027709#0 606078065 156364553#1 606078066#0 72157172 61583424#0 61583424#1 534588621#0 534588621#1 24913519#1"/>
    </vehicle>
    <vehicle id="veh10" type="veh_passenger" depart="50.36" departLane="best" departSpeed="max">
        <route edges="4612966#0 4612966#1 -310176513#9 830728708#3 830728708#4 830728708#5 -24992424#5 -24992424#2 840860363#0 840860363#1 606078065 156364553#1 606078066#0 72157172 61583424#0 61583424#1 534588621#0 534588621#1 24913519#1 24913519#2 541763975 202156995#0 202156995#1 4067932#1 541763974 61584187#1 61584187#2 61584187#3 61584187#4 54048863 15971197#0 15971197#1 751602168 169195795#0 169195795#1 169195795#4 169195795#5 169195795#6 169195795#7 169195795#8 169195795#9 340498988#0 169999355#0 -11483007#2 22972195#2 465376239 465376255#2 190447767 190447766#1 4402228 465376254 222328410 -6228081 541295974 30720544#0 30720544#1 42103020#0 42103020#2 478432725 35269774#0"/>
    </vehicle>
    <vehicle id="veh11" type="veh_passenger" depart="55.40" departLane="best">
        <route edges="128396190#4 -194962375#2 -194962375#1 -194962375#0 -751595929#0 -328920970 -751595928#1 -136571494#4 -136571494#3 -136571494#2 -136571494#1 -136571494#0 -202817674#3 -202817674#2 -43156728#4 -43156728#0"/>
    </vehicle>
    <vehicle id="veh12" type="veh_passenger" depart="60.44" departLane="best">
        <route edges="82659290#0 30826268#1 316092515 309155392 195407521 309147331#0 344594962 312357351#0 312357351#1 309479676 4611726 82649618 819027709#0 606078065 156364553#1 606078066#0 72157172 61583424#0 61583424#1 534588621#0 534588621#1 24913519#1 24913519#2 541763975 202156995#0 202156995#1 4067932#1 541763974 61584187#1 61584187#2 61584187#3 61584187#4 54048863 15971197#0 15971197#1 751602168 169195795#0 169195795#1 169195795#4"/>
    </vehicle>
    <vehicle id="veh13" type="veh_passenger" depart="65.47" departLane="best">
        <route edges="-23121445#5 23121445#5 541763974 61584187#1 61584187#2 61584187#3 61584187#4 54048863 15971197#0 15971197#1 751602168 169195795#0 169195795#1 169195795#4 169195795#5 169195795#6 169195795#7 169195795#8 169195795#9 -66071373#3 -243854725#4 24242882#1 24242882#2 -24242882#2"/>
    </vehicle>
    <vehicle id="veh14" type="veh_passenger" depart="70.51" departLane="best" departSpeed="max">
        <route edges="4612966#0 4612966#1 -310176513#9 830728708#3 830728708#4 830728708#5 -24992424#5 -24992424#2 840860363#0 840860363#1 606078065 156364553#1 606078066#0 72157172 61583424#0 61583424#1 534588621#0 534588621#1 24913519#1 24913519#2 541763975 202156995#0 202156995#1 4067932#1 541763974 61584187#1 61584187#2 61584187#3 61584187#4 54048863 15971197#0 15971197#1 751602168 169195795#0 169195795#1 169195795#4 169195795#5 169195795#6 169195795#7 114667396#0 -15977422#0 -195411605#0 -31313667#2 -31313667#1 -31313667#0 -492340367#0 -339201185 24243107#0 24243107#1 24243107#2 437325054#0"/>
    </vehicle>
    <vehicle id="veh15" type="veh_passenger" depart="75.55" departLane="best" departSpeed="max">
        <route edges="243854725#0 243854725#3 243854725#4 66071373#1 340498982#0 340498982#2 340498982#3 340498982#4 340498982#5 340498982#8 340498982#9 354528932 251884680 339201217#1 54048862#0 54048862#1 54048862#3 831694400 23013165#1 23013165#2 4611698#1 202156994#0 -534588621#1 -534588621#0 606078071#0 606078071#3 61583423#0 61583423#1 -751595930 -156364553#0 156364566#1 60333309#0 60333309#1 24992424#0 24992424#3 4612961#0 4612961#1 830728708#3"/>
    </vehicle>
    <vehicle id="veh16" type="veh_passenger" depart="80.58" departLane="best">
        <route edges="168940071#0 -168940071#0 -24243107#1 -24243107#0 -24243101 492340367#0 492340367#1 31313667#1 31313667#2 31313667#3 24243092#1 35578576#0 35578576#1 35578576#2 153698394#1 153698394#2 340498982#0 340498982#2 340498982#3 340498982#4 340498982#5 340498982#8 340498982#9 354528932 251884680 339201217#1 54048862#0 54048862#1 54048862#3 831694400 23013165#1 23013165#2 4611698#1 202156994#0 -534588621#1 -534588621#0 606078071#0 606078071#3 61583423#0 61583423#1 -751595930 -156364553#0 156364566#1 60333309#0 60333309#1 24992424#0 24992424#3"/>
    </vehicle>
    <vehicle id="veh17" type="veh_passenger" depart="85.62" departLane="best">
        <route edges="465376243#1 24243056 195105328#1 -292429063#1 24243052#0 24243052#1 24243052#2 24243052#3 24243052#4 24243052#5 465376240#0 195411604 83517336#0 83517336#2 153698394#1 153698394#2 340498982#0 340498982#2 340498982#3 340498982#4 340498982#5 340498982#8 340498982#9 354528932 251884680 339201217#1 54048862#0 54048862#1 54048862#3 831694400 23013165#1 23013165#2 4611698#1 202156994#0 -534588621#1 -534588621#0 606078071#0 606078071#3 61583423#0 61583423#1 -751595930 -156364553#0 60333311#1 60333311#2 289966097 289966281 289830064 289966845 289967595#0 82659290#0 30826268#1 316092515 309155392 195407521 309147331#0"/>
    </vehicle>
    <vehicle id="veh18" type="veh_passenger" depart="90.66" departLane="best">
        <route edges="534588621#1 24913519#1 24913519#2 541763975 202156995#0 202156995#1 4067932#1 541763974 61584187#1 61584187#2 61584187#3 61584187#4 54048863 15971197#0 15971197#1 751602168 169195795#0 169195795#1 169195795#4 169195795#5 169195795#6 169195795#7 169195795#8 169195795#9 340498988#0 188386313#0 188386313#2 153698380#0 292429062#0 292429062#1"/>
    </vehicle>
    <vehicle id="veh19" type="veh_passenger" depart="95.69" departLane="best">
        <route edges="340498982#4 340498982#5 340498982#8 340498982#9 168937986#1 168937986#3 168937986#4 168937986#5 -168937986#5"/>
    </vehicle>
    <vehicle id="veh20" type="veh_passenger" depart="100.73" departLane="best" departSpeed="max">
        <route edges="-4613293 -19002363#2 -19002363#1 4613292#0 4613308#2 4613308#3 756306892 112128419#1 112128419#2 415280722 195401013#2 195401013#3 24914992#1 171826985#1 171826985#3 72157174#1 171826984#2 195401006 195401017#5 139877314#1"/>
    </vehicle>
    <vehicle id="veh21" type="veh_passenger" depart="105.77" departLane="best">
        <route edges="-195397561#6 -195397561#3 -195397561#1 -195397561#0 35578576#0 35578576#1 35578576#2 153698394#1 153698394#2 340498982#0 340498982#2 340498982#3 340498982#4 340498982#5 340498982#8 340498982#9 354528932 251884680 339201217#1 54048862#0 54048862#1 54048862#3 831694400 23013165#1 23013165#2 4611698#1 202156994#0 -534588621#1 -534588621#0 606078071#0 606078071#3 61583423#0 61583423#1 -751595930 -156364553#0 156364566#1 60333309#0 60333309#1 24992424#0 -82658674#4 -82658674#2"/>
    </vehicle>
    <vehicle id="veh22" type="veh_passenger" depart="110.80" departLane="best">
        <route edges="-23809670#1 23809670#1 23809670#2 23809670#3 28016312#0 28016312#1 156364556#1 202157002#1 202157002#2 24913519#1 24913519#2 541763975 202156995#0 202156995#1 4067932#1 541763974 61584187#1 61584187#2 61584187#3 61584187#4 54048863 15971197#0 15971197#1 751602168 169195795#0 169195795#1 169195795#4 169195795#5 169195795#6 169195795#7 114667396#0 340498976#1 340498976#2 -122820534#1 122820534#1"/>
    </vehicle>
    <vehicle id="veh23" type="veh_passenger" depart="115.84" departLane="best">
        <route edges="30720544#1 42103020#0 42103020#2 111251382#3 437325051#0 437325051#1 176043806#0 176043806#1 176043807#0 176043807#1"/>
    </vehicle>
    <vehicle id="veh24" type="veh_passenger" depart="120.87" departLane="best">
        <route edges="15971197#0 15971197#1 751602168 169195795#0 169195795#1 340498982#8 340498982#9 354528932 251884680 339201217#1 54048862#0 54048862#1 54048862#3 831694400 23013165#1 23013165#2 4611698#1 202156994#0 -534588621#1 -534588621#0"/>
    </vehicle>
    <vehicle id="veh25" type="veh_passenger" depart="125.91" departLane="best">
        <route edges="-743631784 -316746323#0 46140376#0 46140376#1 -84960597#1 -84960597#0 11103418 23809678#1 23809678#4 -19002363#6 -19002363#3 -19002363#2 -19002363#1 4613292#0 4613308#2 4613308#3 756306892 100405009#1 100405009#2 100405009#3 100405009#4 305093247#0 305093247#2 305093328#0 305093328#1 163368988#3 301733776 19801548#2 188046016#0 66311464#1 82639450"/>
    </vehicle>
    <vehicle id="veh26" type="veh_passenger" depart="130.95" departLane="best">
        <route edges="309155392 195407521 309147331#0 344594962 312357351#0 312357351#1 309479676 4611726 82649618 819027709#0 606078065 156364553#1 606078066#0 72157172 61583424#0 61583424#1 534588621#0 534588621#1 4773465#1 4773465#2 4773465#3 490365295#0 490365295#1 -156364570#3 -156364570#1 -156364570#0 -387892378 -370359204#1 -370359204#0 -743631784 -316746323#0 -84960595 183415643 46140382 30721660#1 30721660#2"/>
    </vehicle>
    <vehicle id="veh27" type="veh_passenger" depart="135.98" departLane="best">
        <route edges="-339201177#4 -339201177#3 -339201177#2 -339201177#1 -339201177#0 4610480 83517334#1 22972219#0 35578559 195397541#1 137630045 -339201185 24243107#0 24243107#1 24243107#2 437325054#0"/>
    </vehicle>
    <vehicle id="veh28" type="veh_passenger" depart="141.02" departLane="best" departSpeed="max">
        <route edges="-326116285#2 -326116285#1 -4402014#3 -4402014#2 -326116286#2 -24913267#2 342968607#1 461526152#0 340498982#0 340498982#2 340498982#3 340498982#4 340498982#5 340498982#8 340498982#9 354528932 251884680 339201217#1 54048862#0 54048862#1 54048862#3 831694400 23013165#1 23013165#2 4611698#1 202156994#0 -534588621#1 -534588621#0 606078071#0 606078071#3 61583423#0 61583423#1 -751595930 -156364553#0 60333311#1 60333311#2 289966097 289966281 289830064 289966845 289967595#0 82659290#0 24540242#1 188044903#0"/>
    </vehicle>
    <vehicle id="veh29" type="veh_passenger" depart="146.06" departLane="best" departSpeed="max">
        <route edges="24914141#0 318282850#2 112128419#1 112128419#2 415280722 195401013#2 195401013#3 24914992#1 171826985#1 171826985#3 -534588621#1 -534588621#0 606078071#0 606078071#3 61583423#0 61583423#1 -751595930 -156364553#0 60333311#1 60333311#2 289966097 289966281 344594961"/>
    </vehicle>
    <vehicle id="veh30" type="veh_passenger" depart="151.09" departLane="best">
        <route edges="4773465#3 490365295#0 490365295#1 156364556#1 202157002#1 202157002#2 24913519#1 24913519#2 541763975 202156995#0 202156995#1 4067932#1 541763974 61584187#1 61584187#2 61584187#3 61584187#4 54048863 15971197#0 15971197#1 751602168 169195795#0 169195795#1 169195795#4 169195795#5 169195795#6 169195795#7 169195795#8 169195795#9 -66071373#3 -243854725#4 24242882#1 24242882#2 24242882#3 4611706#0 4611706#1"/>
    </vehicle>
    <vehicle id="veh31" type="veh_passenger" depart="156.13" departLane="best" departSpeed="max">
        <route edges="-4613293 -55741054 -62363401 -234463928#0 -234463931#5 -234463931#4 -234463931#3 -234463931#2 -234463931#1 -234463931#0 77348147 156364570#1 156364570#2 156364556#1 202157002#1 202157002#2 24913519#1 24913519#2 541763975 202156995#0 202156995#1 4067932#1 541763974 61584187#1 61584187#2 61584187#3 61584187#4 54048863 15971197#0 15971197#1 751602168 169195795#0 169195795#1 169195795#4 169195795#5 169195795#6 169195795#7 114667396#0 -15977422#0 -195411605#0 -31313667#2 -31313667#1 -31313667#0 -492340367#0 -137630045"/>
    </vehicle>
    <vehicle id="veh32" type="veh_passenger" depart="161.17" departLane="best">
        <route edges="114667396#0 -15977422#0 24243092#1 35578576#0 35578576#1 35578576#2 153698394#1 153698394#2 340498982#0 340498982#2 340498982#3 340498982#4 340498982#5 340498982#8 340498982#9 354528932 251884680 339201217#1 54048862#0 54048862#1 54048862#3 831694400 23013165#1 23013165#2 4611698#1 202156994#0 72157174#1 171826984#2 195401006 195401017#5 139877314#1 112128418#1 112128418#2 112128418#3"/>
    </vehicle>
    <vehicle id="veh33" type="veh_passenger" depart="166.20" departLane="best" departSpeed="max">
        <route edges="-4610607 755551646#1 43156728#2 202817674#0 202817674#3 202817674#4 136571494#1 136571494#2 136571494#3 136571494#4 136571494#5 61583423#0 61583423#1 -751595930 -156364553#0 60333311#1 60333311#2 289966097 289966281 289830064 289966845 289967595#0 82659290#0 66311464#1 82639450"/>
    </vehicle>
    <vehicle id="veh34" type="veh_passenger" depart="171.24" departLane="best">
        <route edges="54698846#1 54698846#2 4612973#0 4612973#1 82658674#2 82658674#3 -24992424#2 840860363#0 840860363#1 606078065 156364553#1 606078066#0 72157172 61583424#0 61583424#1 534588621#0 534588621#1 24913519#1 24913519#2 541763975 202156995#0 202156995#1 4067932#1 541763974 61584187#1 61584187#2 61584187#3 61584187#4 54048863 15971197#0 15971197#1 751602168 168937986#1 168937986#3 168937986#4 168937986#5"/>
    </vehicle>
    <vehicle id="veh35" type="veh_passenger" depart="176.28" departLane="best">
        <route edges="310176513#3 310176513#4 310176513#6 310176513#7 830728708#3 830728708#4 830728708#5 -24992424#5 -24992424#2 840860363#0 840860363#1 606078065 156364553#1 606078066#0 72157172 61583424#0 61583424#1 534588621#0 534588621#1 72157174#1 171826984#2 195401006 195401017#5 139877314#1 19002403#1 523630409 19002357#1"/>
    </vehicle>
    <vehicle id="veh37" type="veh_passenger" depart="186.35" departLane="best">
        <route edges="-66071379#0 354528932 251884680 339201217#1 54048862#0 54048862#1 54048862#3 831694400 23013165#1 23013165#2 4611698#1 202156994#0 72157174#1 171826984#2 195401006 195401017#5 139877314#1 100405009#1 100405009#2"/>
    </vehicle>
    <vehicle id="veh38" type="veh_passenger" depart="191.39" departLane="best" departSpeed="max">
        <route edges="24993933#0 24993933#1 24993933#2 4613308#2 4613308#3 756306892 112128419#1 112128419#2 415280722 195401013#2 195401013#3 24914992#1 171826985#1 171826985#3 24913519#1 24913519#2 541763975 202156995#0 202156995#1 4067932#1 541763974 61584187#1 61584187#2 61584187#3"/>
    </vehicle>
    <vehicle id="veh39" type="veh_passenger" depart="196.42" departLane="best">
        <route edges="84960597#1 83517332#1 83517332#2 84960595 316746323#0 316746323#1 370359204#0 370359204#1 370359204#2 77348147 156364570#1 156364570#2 156364556#1 202157002#1 202157002#2 24913519#1 24913519#2 541763975 202156995#0 202156995#1 4067932#1 541763974 61584187#1 61584187#2 61584187#3 61584187#4 54048863 15971197#0 15971197#1 751602168 169195795#0 169195795#1 169195795#4 169195795#5 169195795#6 169195795#7 169195795#8 169195795#9 340498988#0 188386313#0 188386313#2 153698380#0 292429062#0 292429062#1 292429062#2 292429062#3 24242892#2 24242892#3"/>
    </vehicle>
    <vehicle id="veh40" type="veh_passenger" depart="201.46" departLane="best">
        <route edges="-23121445#3 23121445#3 23121445#4 23121445#5 541763974 61584187#1 61584187#2 61584187#3 61584187#4 54048863 15971197#0 15971197#1 751602168 169195795#0 169195795#1 169195795#4 169195795#5 169195795#6 169195795#7 169195795#8 169195795#9 340498988#0 169999355#0 -11483007#2 22972195#2 465376239 465376255#2 190447767 190447766#1 4402228 465376254 222328410 -6228081 541295974 30720544#0 30720544#1 -168940071#3 -168940071#2 -168940071#1"/>
    </vehicle>
    <vehicle id="veh41" type="veh_passenger" depart="206.49" departLane="best">
        <route edges="-24242882#0 194069450#0 194069450#1 461526152#0 340498982#0 340498982#2 340498982#3 340498982#4 340498982#5 340498982#8 340498982#9 354528932 251884680 339201217#1 54048862#0 54048862#1 54048862#3 831694400 23013165#1 23013165#2 4611698#1 202156994#0 -534588621#1 -534588621#0 606078071#0 606078071#3 61583423#0 61583423#1 -751595930 -156364553#0 60333311#1 60333311#2 289966097 289966281 4612965 310176513#0 310176513#1 310176513#2 310176513#3 310176513#4"/>
    </vehicle>
    <vehicle id="veh42" type="veh_passenger" depart="211.53" departLane="best">
        <route edges="4611696#4 -4611696#4 54781811#0 54781811#1 305153174 43230886 4611694#0 4611694#1 251884680 339201217#1 54048862#0 54048862#1 54048862#3 831694400 23013165#1 23013165#2 4611698#1 202156994#0 72157174#1 171826984#2 195401006"/>
    </vehicle>
    <vehicle id="veh43" type="veh_passenger" depart="216.57" departLane="best">
        <route edges="-19002363#2 -19002363#1 4613292#0 4613308#2 4613308#3 756306892 100405009#1 100405009#2 100405009#3 100405009#4 305093247#0 305093247#2 305093328#0 305093328#1 163368988#3 301733776 19801548#2 188046016#0 24540242#1 188044903#0"/>
    </vehicle>
    <vehicle id="veh44" type="veh_passenger" depart="221.60" departLane="best" departSpeed="max">
        <route edges="84960597#0 84960597#1 83517332#1 83517332#2 84960595 316746323#0 316746323#1 370359204#0 370359204#1 370359204#2 77348147 156364570#1 156364570#2 156364556#1 202157002#1 202157002#2 24913519#1 24913519#2 541763975 202156995#0 202156995#1 4067932#1 541763974 61584187#1 61584187#2 61584187#3 61584187#4 54048863 15971197#0 15971197#1 751602168 169195795#0 169195795#1 169195795#4 169195795#5 169195795#6 169195795#7 169195795#8 169195795#9 340498988#0 188386313#0 188386313#2 155186522 24913267#0"/>
    </vehicle>
    <vehicle id="veh46" type="veh_passenger" depart="231.68" departLane="best">
        <route edges="31313667#2 31313667#3 24243092#1 35578576#0 35578576#1 35578576#2 153698394#1 153698394#2 340498988#0 188386313#0 188386313#2 24913304#1 24913304#2"/>
    </vehicle>
    <vehicle id="veh47" type="veh_passenger" depart="236.71" departLane="best">
        <route edges="-743631784 -316746323#0 46140376#0 46140376#1 -84960597#1 -84960597#0 11103418 23809678#1 23809678#4 -19002363#6 -19002363#3 -19002363#2 -19002363#1 4613292#0 4613308#2 4613308#3 756306892 100405009#1 100405009#2 100405009#3 100405009#4 305093247#0 305093247#2 305093328#0 305093328#1 163368988#3 301733776 19801548#2 188046016#0 30826268#1 316092515 309155392 195407521 309147331#0 344594962 312357351#0 312357351#1"/>
    </vehicle>
    <vehicle id="veh48" type="veh_passenger" depart="241.75" departLane="best">
        <route edges="-24242882#3 24242882#3 68647306#1 68647306#2 68647306#3 68647306#4 68647306#5 68647306#6 28251222#0 28251222#1 340498982#8 340498982#9 354528932 251884680 339201217#1 54048862#0 54048862#1 54048862#3 831694400 23013165#1 23013165#2 4611698#1 202156994#0 72157174#1 171826984#2 195401006 195401017#5 139877314#1 100405009#1 100405009#2 100405009#3 100405009#4 305093247#0 305093247#2 305093328#0 305093328#1 163368988#3 301733776 19801548#2"/>
    </vehicle>
    <vehicle id="veh49" type="veh_passenger" depart="246.79" departLane="best">
        <route edges="195401013#2 195401013#3 24914992#1 171826985#1 171826985#3 -534588621#1 -534588621#0 606078071#0 606078071#3 61583423#0 61583423#1 -751595930 -156364553#0 156364566#1 60333309#0 60333309#1 24992424#0 24992424#3 4612961#0 4612961#1 4612961#2 344594966 82652397#0"/>
    </vehicle>
    <vehicle id="veh50" type="veh_passenger" depart="251.82" departLane="best">
        <route edges="54698846#1 54698846#2 4612973#0 4612973#1 82658674#2 82658674#3 -24992424#2 840860363#0 840860363#1 606078065 156364553#1 606078066#0 72157172 61583424#0 61583424#1 534588621#0 534588621#1 72157174#1 171826984#2 195401006 195401017#5 139877314#1 112128418#1 112128418#2 112128418#3"/>
    </vehicle>
    <vehicle id="veh51" type="veh_passenger" depart="256.86" departLane="best" departSpeed="max">
        <route edges="236092221#0 236092221#1 236092221#2 236092221#3 342968607#1 461526153 169999355#0 -11483007#2 22972195#2 465376239 465376255#2 190447767 190447766#1 4402228 465376254 -4610472#2 -4610472#1 -4610472#0"/>
    </vehicle>
    <vehicle id="veh54" type="veh_passenger" depart="271.97" departLane="best">
        <route edges="292429063#1 -292429063#1 24243052#0 24243052#1 24243052#2 24243052#3 24243052#4 24243052#5 465376240#0 195411604 83517336#0 83517336#2 153698394#1 153698394#2 340498982#0 340498982#2 340498982#3 340498982#4 340498982#5 340498982#8 340498982#9 354528932 251884680 339201217#1 54048862#0 54048862#1 54048862#3 831694400 23013165#1 23013165#2 4611698#1 202156994#0 4773465#1 4773465#2 4773465#3 490365295#0 490365295#1 -156364570#3 -156364570#1 -156364570#0 -387892378 -370359204#1 -370359204#0"/>
    </vehicle>
    <vehicle id="veh55" type="veh_passenger" depart="277.00" departLane="best" departSpeed="max">
        <route edges="454285423#0 -454285423#0 4610351#0 4610351#1 30721660#4 30721660#5 4610362#0 4610362#1 4610362#2 4610362#3 4610362#4 4610362#5 4610362#6 4610362#7 4610362#8 30721662#0 30721662#1 30721662#2 30721662#3 831659093#0 831659093#1 23809670#1 23809670#2 23809670#3 28016312#0 28016312#1 156364556#1 202157002#1 202157002#2 24913519#1 24913519#2 541763975 202156995#0 202156995#1 4067932#1 541763974 61584187#1 61584187#2 61584187#3 61584187#4 54048863 15971197#0 15971197#1 751602168 169195795#0 169195795#1 169195795#4 169195795#5 169195795#6 169195795#7 169195795#8 169195795#9 340498988#0 188386313#0 188386313#2 24913304#1 24913304#2"/>
    </vehicle>
    <vehicle id="veh56" type="veh_passenger" depart="282.04" departLane="best">
        <route edges="4610362#8 30721662#0 30721662#1 30721662#2 30721662#3 831659093#0 831659093#1 23809670#1 23809670#2 23809670#3 28016312#0 28016312#1 156364556#1 202157002#1 202157002#2 24913519#1 24913519#2 541763975 202156995#0 202156995#1 4067932#1 541763974 61584187#1 61584187#2 61584187#3 61584187#4 54048863 15971197#0 15971197#1 751602168 169195795#0 169195795#1 169195795#4 169195795#5 169195795#6 169195795#7 169195795#8 169195795#9 340498988#0 188386313#0 188386313#2 155186522 24913267#0 24913267#3"/>
    </vehicle>
    <vehicle id="veh57" type="veh_passenger" depart="287.08" departLane="best">
        <route edges="-136571494#3 136571494#3 136571494#4 136571494#5 328920970 61583424#0 61583424#1 534588621#0 534588621#1 72157174#1 171826984#2 195401006 195401017#5 139877314#1 19002403#1 523630409 4613308#2 4613308#3 756306892"/>
    </vehicle>
    <vehicle id="veh58" type="veh_passenger" depart="292.11" departLane="best">
        <route edges="55741054 -19002363#2 -19002363#1 4613292#0 4613308#2 4613308#3 756306892 112128419#1 112128419#2 415280722 195401013#2 195401013#3 24914992#1 171826985#1 171826985#3 4773465#1 4773465#2 4773465#3 490365295#0"/>
    </vehicle>
    <vehicle id="veh59" type="veh_passenger" depart="297.15" departLane="best">
        <route edges="111833186#2 -4402037#0 -24242892#4 -24242892#3 -24242892#2 158023913#0 158023913#2 158023913#4 22972195#2 465376239 465376255#2 190447767 190447766#1 4402228 465376254 222328410 -6228081 541295974 30720544#0 30720544#1 42103020#0 42103020#2 111251382#3 437325051#0 437325051#1 176043806#0 176043806#1 176043807#0 -176043807#0"/>
    </vehicle>
    <vehicle id="veh60" type="veh_passenger" depart="302.19" departLane="best">
        <route edges="54781811#1 305153174 43230886 4611694#0 4611694#1 251884680 339201217#1 54048862#0 54048862#1 54048862#3 831694400 23013165#1 23013165#2 4611698#1 202156994#0 -534588621#1 -534588621#0 606078071#0 606078071#3 328920970 751595929#0 751595929#1 194962375#1 194962375#2 -128396190#4 -128396190#3 -128396190#2 -128396190#1 4611726 82649618"/>
    </vehicle>
    <vehicle id="veh62" type="veh_passenger" depart="312.26" departLane="best">
        <route edges="-195104956#0 -169660686#0 -705182550 -427637455 -153698390#1 30720544#0 30720544#1 -168940071#3 -168940071#2 -168940071#1 -168940071#0 -24243107#1 -24243107#0 -24243101 -137630045 -195397541#1 -195397541#0 4610476#2 4610476#3"/>
    </vehicle>
    <vehicle id="veh63" type="veh_passenger" depart="317.30" departLane="best">
        <route edges="454285423#3 -225400578#1 -437325047#3 -437325047#2 -437325047#0 4610362#0 4610362#1 4610362#2 4610362#3 4610362#4 4610362#5 4610362#6 4610362#7 4610362#8 30721662#0 30721662#1 30721662#2 30721662#3 831659093#0 831659093#1 23809670#1 23809670#2 23809670#3 28016312#0 28016312#1 156364556#1 202157002#1 202157002#2 -534588621#1 -534588621#0 606078071#0 606078071#3 61583423#0 61583423#1 -751595930 -156364553#0 60333311#1 60333311#2 289966097 289966281 4612965 310176513#0 310176513#1 -310176513#1"/>
    </vehicle>
    <vehicle id="veh64" type="veh_passenger" depart="322.33" departLane="best">
        <route edges="202156995#0 202156995#1 4067932#1 831694400 23013165#1 23013165#2 4611698#1 202156994#0 4773465#1 4773465#2 4773465#3 490365295#0 490365295#1 -156364570#3 -156364570#1 -156364570#0 25294728 234463931#1 234463931#2 234463931#3 234463931#4 234463931#5 234463931#6 234463928#1 188914559 24990040"/>
    </vehicle>
    <vehicle id="veh65" type="veh_passenger" depart="327.37" departLane="best">
        <route edges="-66071379#0 354528932 251884680 339201217#1 54048862#0 54048862#1 54048862#3 831694400 23013165#1 23013165#2 4611698#1 202156994#0 -534588621#1 -534588621#0 606078071#0 606078071#3 61583423#0 61583423#1 -751595930 -156364553#0 156364566#1 60333309#0"/>
    </vehicle>
    <vehicle id="veh66" type="veh_passenger" depart="332.41" departLane="best" departSpeed="max">
        <route edges="187111590#0 47016365#1 301241483#3 728838409#0 728838409#1 728838409#2 301241681#1 301241681#3 301241681#4 246052428 301167584#0 19002403#1 523630409 19002357#1 19002363#1 19002363#2 -55741054"/>
    </vehicle>
    <vehicle id="veh67" type="veh_passenger" depart="337.44" departLane="best">