<?xml version="1.0" encoding="UTF-8"?>

<!-- generated on 11/29/20 23:16:14 by Eclipse SUMO duarouter Version 1.7.0
<configuration xmlns:xsi="http://www.w3.org/2001/XMLSchema-instance" xsi:noNamespaceSchemaLocation="http://sumo.dlr.de/xsd/duarouterConfiguration.xsd">

    <input>
        <net-file value="D:\github\sumo-learning\2020-11-29-23-10-51\osm.net.xml"/>
        <route-files value="D:\github\sumo-learning\2020-11-29-23-10-51\osm.passenger.trips.xml"/>
    </input>

    <output>
        <output-file value="D:\github\sumo-learning\2020-11-29-23-10-51\osm.passenger.trips.xml.tmp"/>
        <write-trips value="true"/>
    </output>

    <time>
        <begin value="0"/>
        <end value="1001"/>
    </time>

    <report>
        <no-warnings value="true"/>
        <ignore-errors value="true"/>
        <no-step-log value="true"/>
    </report>

</configuration>
-->

<routes xmlns:xsi="http://www.w3.org/2001/XMLSchema-instance" xsi:noNamespaceSchemaLocation="http://sumo.dlr.de/xsd/routes_file.xsd">
    <vType id="veh_passenger" vClass="passenger"/>
    <trip id="veh0" type="veh_passenger" depart="0.00" departLane="best" from="-755551646#1" to="-750204886"/>
    <trip id="veh1" type="veh_passenger" depart="2.34" departLane="best" from="415280722" to="344594961"/>
    <trip id="veh2" type="veh_passenger" depart="4.67" departLane="best" from="606078066#0" to="-234463931#1"/>
    <trip id="veh3" type="veh_passenger" depart="7.01" departLane="best" from="171826985#3" to="-136571494#4"/>
    <trip id="veh4" type="veh_passenger" depart="9.35" departLane="best" from="-4612968#0" to="24242892#2"/>
    <trip id="veh5" type="veh_passenger" depart="11.69" departLane="best" from="-156364570#1" to="-4612970#0"/>
    <trip id="veh6" type="veh_passenger" depart="14.02" departLane="best" from="309155392" to="24914992#1"/>
    <trip id="veh7" type="veh_passenger" depart="16.36" departLane="best" from="-4612968#3" to="305093247#0"/>
    <trip id="veh9" type="veh_passenger" depart="21.04" departLane="best" from="4612961#0" to="36892597#1"/>
    <trip id="veh10" type="veh_passenger" depart="23.37" departLane="best" departSpeed="max" from="122820534#0" to="-43156728#0"/>
    <trip id="veh11" type="veh_passenger" depart="25.71" departLane="best" from="82654055#0" to="169195795#5"/>
    <trip id="veh12" type="veh_passenger" depart="28.05" departLane="best" departSpeed="max" from="4790799" to="30721660#3"/>
    <trip id="veh13" type="veh_passenger" depart="30.39" departLane="best" from="4612961#1" to="4402014#0"/>
    <trip id="veh14" type="veh_passenger" depart="32.72" departLane="best" from="24243052#1" to="830728708#3"/>
    <trip id="veh15" type="veh_passenger" depart="35.06" departLane="best" departSpeed="max" from="165415464#0" to="25294728"/>
    <trip id="veh16" type="veh_passenger" depart="37.40" departLane="best" from="46140376#0" to="310176513#1"/>
    <trip id="veh17" type="veh_passenger" depart="39.73" departLane="best" departSpeed="max" from="-4613293" to="137630045"/>
    <trip id="veh19" type="veh_passenger" depart="44.41" departLane="best" departSpeed="max" from="-23813206#2" to="120675240#0"/>
    <trip id="veh20" type="veh_passenger" depart="46.75" departLane="best" from="305153173" to="183415643"/>
    <trip id="veh21" type="veh_passenger" depart="49.08" departLane="best" from="156364570#2" to="-534588621#1"/>
    <trip id="veh22" type="veh_passenger" depart="51.42" departLane="best" from="-66071370" to="82639450"/>
    <trip id="veh23" type="veh_passenger" depart="53.76" departLane="best" from="-34848160#1" to="437325054#0"/>
    <trip id="veh24" type="veh_passenger" depart="56.10" departLane="best" from="-326116286#2" to="188044903#0"/>
    <trip id="veh26" type="veh_passenger" depart="60.77" departLane="best" departSpeed="max" from="24914141#0" to="34848160#2"/>
    <trip id="veh27" type="veh_passenger" depart="63.11" departLane="best" from="4773465#2" to="4611713"/>
    <trip id="veh28" type="veh_passenger" depart="65.44" departLane="best" from="-4611696#3" to="82639450"/>
    <trip id="veh29" type="veh_passenger" depart="67.78" departLane="best" from="54698846#0" to="168937986#4"/>
    <trip id="veh30" type="veh_passenger" depart="70.12" departLane="best" from="310176513#0" to="19002363#6"/>
    <trip id="veh31" type="veh_passenger" depart="72.46" departLane="best" from="66071373#1" to="23121445#5"/>
    <trip id="veh32" type="veh_passenger" depart="74.79" departLane="best" from="-66071366#0" to="100405009#1"/>
    <trip id="veh33" type="veh_passenger" depart="77.13" departLane="best" departSpeed="max" from="24914141#0" to="112128418#1"/>
    <trip id="veh34" type="veh_passenger" depart="79.47" departLane="best" from="24992424#0" to="6227658#2"/>
    <trip id="veh35" type="veh_passenger" depart="81.81" departLane="best" from="84960597#1" to="24242892#5"/>
    <trip id="veh36" type="veh_passenger" depart="84.14" departLane="best" from="-234463931#2" to="-168937986#4"/>
    <trip id="veh37" type="veh_passenger" depart="86.48" departLane="best" from="-24242882#2" to="312176585#2"/>
    <trip id="veh38" type="veh_passenger" depart="88.82" departLane="best" from="4610600" to="195401017#5"/>
    <trip id="veh39" type="veh_passenger" depart="91.16" departLane="best" from="-194962375#0" to="188044903#0"/>
    <trip id="veh40" type="veh_passenger" depart="93.49" departLane="best" from="84960595" to="24913304#1"/>
    <trip id="veh41" type="veh_passenger" depart="95.83" departLane="best" from="830728708#1" to="541763975"/>
    <trip id="veh42" type="veh_passenger" depart="98.17" departLane="best" from="-128396190#1" to="43231842#2"/>
    <trip id="veh43" type="veh_passenger" depart="100.50" departLane="best" departSpeed="max" from="313039168" to="24913304#2"/>
    <trip id="veh45" type="veh_passenger" depart="105.18" departLane="best" from="-24242892#3" to="202156991#2"/>
    <trip id="veh46" type="veh_passenger" depart="107.52" departLane="best" from="194069450#0" to="82652397#0"/>
    <trip id="veh47" type="veh_passenger" depart="109.85" departLane="best" from="541763975" to="112128418#1"/>
    <trip id="veh48" type="veh_passenger" depart="112.19" departLane="best" from="23013165#2" to="-4588217"/>
    <trip id="veh49" type="veh_passenger" depart="114.53" departLane="best" from="66071366#1" to="60333309#0"/>
    <trip id="veh51" type="veh_passenger" depart="119.20" departLane="best" from="292429062#0" to="-370359204#1"/>
    <trip id="veh52" type="veh_passenger" depart="121.54" departLane="best" from="4610362#0" to="24913304#2"/>
    <trip id="veh53" type="veh_passenger" depart="123.88" departLane="best" from="-136571494#4" to="77348147"/>
    <trip id="veh54" type="veh_passenger" depart="126.22" departLane="best" from="54781811#1" to="490365295#0"/>
    <trip id="veh55" type="veh_passenger" depart="128.55" departLane="best" departSpeed="max" from="111833185#0" to="-176043794"/>
    <trip id="veh56" type="veh_passenger" depart="130.89" departLane="best" from="54781811#0" to="82639450"/>
    <trip id="veh57" type="veh_passenger" depart="133.23" departLane="best" from="-23121445#2" to="23851930"/>
    <trip id="veh58" type="veh_passenger" depart="135.56" departLane="best" departSpeed="max" from="-195104960#2" to="4610479#1"/>
    <trip id="veh59" type="veh_passenger" depart="137.90" departLane="best" from="4403559#2" to="-310176513#2"/>
    <trip id="veh60" type="veh_passenger" depart="140.24" departLane="best" departSpeed="max" from="196850609#0" to="24993933#2"/>
    <trip id="veh61" type="veh_passenger" depart="142.58" departLane="best" from="-66071366#0" to="60333311#1"/>
    <trip id="veh62" type="veh_passenger" depart="144.91" departLane="best" from="176043806#0" to="-560370523"/>
    <trip id="veh63" type="veh_passenger" depart="147.25" departLane="best" from="24243056" to="4402014#0"/>
    <trip id="veh64" type="veh_passenger" depart="149.59" departLane="best" from="844076875#0" to="326116285#2"/>
    <trip id="veh65" type="veh_passenger" depart="151.93" departLane="best" from="188046016#0" to="24243107#1"/>
    <trip id="veh66" type="veh_passenger" depart="154.26" departLane="best" from="-243854725#4" to="-751595929#0"/>
    <trip id="veh67" type="veh_passenger" depart="156.60" departLane="best" departSpeed="max" from="122820534#0" to="301733776"/>
    <trip id="veh68" type="veh_passenger" depart="158.94" departLane="best" departSpeed="max" from="-465398529#2" to="-66071373#3"/>
    <trip id="veh69" type="veh_passenger" depart="161.27" departLane="best" from="-195105328#1" to="312357351#0"/>
    <trip id="veh70" type="veh_passenger" depart="163.61" departLane="best" from="-465376254" to="66311464#1"/>
    <trip id="veh71" type="veh_passenger" depart="165.95" departLane="best" from="51167934#1" to="-195105328#0"/>
    <trip id="veh72" type="veh_passenger" depart="168.29" departLane="best" departSpeed="max" from="-4790825#2" to="340498982#8"/>
    <trip id="veh73" type="veh_passenger" depart="170.62" departLane="best" departSpeed="max" from="-4611713" to="-310177222#0"/>
    <trip id="veh74" type="veh_passenger" depart="172.96" departLane="best" from="751595929#1" to="292429062#0"/>
    <trip id="veh75" type="veh_passenger" depart="175.30" departLane="best" from="195411604" to="4612968#0"/>
    <trip id="veh76" type="veh_passenger" depart="177.64" departLane="best" from="176043806#1" to="23755950#1"/>
    <trip id="veh77" type="veh_passenger" depart="179.97" departLane="best" from="389101365#0" to="344594961"/>
    <trip id="veh78" type="veh_passenger" depart="182.31" departLane="best" from="83517332#1" to="-24242882#0"/>
    <trip id="veh79" type="veh_passenger" depart="184.65" departLane="best" from="-437325048#1" to="22972195#2"/>
    <trip id="veh80" type="veh_passenger" depart="186.99" departLane="best" from="171826985#3" to="120675240#3"/>
    <trip id="veh81" type="veh_passenger" depart="189.32" departLane="best" departSpeed="max" from="-51167934#4" to="750204886"/>
    <trip id="veh82" type="veh_passenger" depart="191.66" departLane="best" from="188386313#0" to="54698846#0"/>
    <trip id="veh83" type="veh_passenger" depart="194.00" departLane="best" from="24913267#0" to="-168940071#3"/>
    <trip id="veh85" type="veh_passenger" depart="198.67" departLane="best" departSpeed="max" from="830728708#0" to="755551646#1"/>
    <trip id="veh86" type="veh_passenger" depart="201.01" departLane="best" departSpeed="max" from="4790799" to="-437325047#5"/>
    <trip id="veh87" type="veh_passenger" depart="203.35" departLane="best" from="202156995#0" to="-6227658#3"/>
    <trip id="veh88" type="veh_passenger" depart="205.68" departLane="best" from="169195795#4" to="-176043806#0"/>
    <trip id="veh89" type="veh_passenger" depart="208.02" departLane="best" departSpeed="max" from="165415464#0" to="83517339"/>
    <trip id="veh90" type="veh_passenger" depart="210.36" departLane="best" from="-66071366#1" to="4612966#1"/>
    <trip id="veh91" type="veh_passenger" depart="212.70" departLane="best" from="194069450#1" to="195401017#5"/>
    <trip id="veh92" type="veh_passenger" depart="215.03" departLane="best" from="82654055#0" to="844076875#1"/>
    <trip id="veh93" type="veh_passenger" depart="217.37" departLane="best" from="24913519#2" to="43230886"/>
    <trip id="veh94" type="veh_passenger" depart="219.71" departLane="best" from="-316746323#0" to="156364553#1"/>
    <trip id="veh96" type="veh_passenger" depart="224.38" departLane="best" from="24243107#2" to="4610355"/>
    <trip id="veh98" type="veh_passenger" depart="229.06" departLane="best" departSpeed="max" from="-326116285#2" to="82652397#0"/>
    <trip id="veh99" type="veh_passenger" depart="231.39" departLane="best" departSpeed="max" from="-202156991#2" to="-4611706#1"/>
    <trip id="veh100" type="veh_passenger" depart="233.73" departLane="best" from="25302636#1" to="344594961"/>
    <trip id="veh101" type="veh_passenger" depart="236.07" departLane="best" from="-4773029#2" to="-28016312#0"/>
    <trip id="veh102" type="veh_passenger" depart="238.41" departLane="best" from="606078065" to="100405009#1"/>
    <trip id="veh103" type="veh_passenger" depart="240.74" departLane="best" from="25294729#0" to="310176513#3"/>
    <trip id="veh105" type="veh_passenger" depart="245.42" departLane="best" from="23813206#0" to="819027709#0"/>
    <trip id="veh106" type="veh_passenger" depart="247.76" departLane="best" departSpeed="max" from="-4570580#1" to="43156728#2"/>
    <trip id="veh107" type="veh_passenger" depart="250.09" departLane="best" departSpeed="max" from="-4790825#2" to="19002363#6"/>
    <trip id="veh108" type="veh_passenger" depart="252.43" departLane="best" from="112128419#1" to="4610362#4"/>
    <trip id="veh109" type="veh_passenger" depart="254.77" departLane="best" from="-195397541#1" to="23121445#4"/>
    <trip id="veh110" type="veh_passenger" depart="257.10" departLane="best" from="874528353#0" to="84960595"/>
    <trip id="veh111" type="veh_passenger" depart="259.44" departLane="best" from="-195397561#0" to="-6227658#2"/>
    <trip id="veh112" type="veh_passenger" depart="261.78" departLane="best" from="-66071366#1" to="819027709#0"/>
    <trip id="veh113" type="veh_passenger" depart="264.12" departLane="best" from="156364570#1" to="-43159545#0"/>
    <trip id="veh115" type="veh_passenger" depart="268.79" departLane="best" from="292429063#0" to="840860363#0"/>
    <trip id="veh116" type="veh_passenger" depart="271.13" departLane="best" from="309479676" to="-111251382#3"/>
    <trip id="veh117" type="veh_passenger" depart="273.47" departLane="best" from="4612969#0" to="156364556#1"/>
    <trip id="veh118" type="veh_passenger" depart="275.80" departLane="best" departSpeed="max" from="310177222#0" to="82639450"/>
    <trip id="veh119" type="veh_passenger" depart="278.14" departLane="best" from="-28251222#0" to="-24993933#0"/>
    <trip id="veh120" type="veh_passenger" depart="280.48" departLane="best" from="-24241797#2" to="25294729#1"/>
    <trip id="veh121" type="veh_passenger" depart="282.82" departLane="best" from="-751595929#0" to="30721660#5"/>
    <trip id="veh122" type="veh_passenger" depart="285.15" departLane="best" from="35578559" to="-4773029#0"/>
    <trip id="veh123" type="veh_passenger" depart="287.49" departLane="best" from="202157002#1" to="66311464#1"/>
    <trip id="veh124" type="veh_passenger" depart="289.83" departLane="best" departSpeed="max" from="4790799" to="-23755950#4"/>
    <trip id="veh125" type="veh_passenger" depart="292.16" departLane="best" from="176043806#1" to="114667396#0"/>
    <trip id="veh126" type="veh_passenger" depart="294.50" departLane="best" from="-111251382#3" to="4611698#1"/>
    <trip id="veh127" type="veh_passenger" depart="296.84" departLane="best" from="30720544#0" to="111833186#2"/>
    <trip id="veh128" type="veh_passenger" depart="299.18" departLane="best" from="42103020#2" to="25294728"/>
    <trip id="veh129" type="veh_passenger" depart="301.51" departLane="best" departSpeed="max" from="187111590#0" to="-111833185#0"/>
    <trip id="veh130" type="veh_passenger" depart="303.85" departLane="best" from="-195397561#6" to="606078071#0"/>
    <trip id="veh131" type="veh_passenger" depart="306.19" departLane="best" from="61584187#2" to="24990040"/>
    <trip id="veh133" type="veh_passenger" depart="310.86" departLane="best" departSpeed="max" from="111833185#0" to="6227658#3"/>
    <trip id="veh134" type="veh_passenger" depart="313.20" departLane="best" from="4611694#1" to="541763975"/>
    <trip id="veh135" type="veh_passenger" depart="315.54" departLane="best" from="61583423#1" to="-541295974"/>
    <trip id="veh136" type="veh_passenger" depart="317.88" departLane="best" departSpeed="max" from="-51167934#4" to="-24242892#4"/>
    <trip id="veh137" type="veh_passenger" depart="320.21" departLane="best" from="4610362#2" to="606078071#0"/>
    <trip id="veh138" type="veh_passenger" depart="322.55" departLane="best" from="169195795#6" to="310176513#4"/>
    <trip id="veh140" type="veh_passenger" depart="327.22" departLane="best" from="54048862#0" to="830728708#5"/>
    <trip id="veh141" type="veh_passenger" depart="329.56" departLane="best" departSpeed="max" from="4612966#0" to="606078066#0"/>
    <trip id="veh142" type="veh_passenger" depart="331.90" departLane="best" from="-156364553#0" to="4403559#2"/>
    <trip id="veh144" type="veh_passenger" depart="336.57" departLane="best" from="4611706#1" to="54781811#1"/>
    <trip id="veh145" type="veh_passenger" depart="338.91" departLane="best" departSpeed="max" from="4612966#0" to="112128418#3"/>
    <trip id="veh146" type="veh_passenger" depart="341.25" departLane="best" from="4610472#1" to="-24913267#2"/>
    <trip id="veh147" type="veh_passenger" depart="343.59" departLane="best" from="541295978#1" to="541763974"/>
    <trip id="veh148" type="veh_passenger" depart="345.92" departLane="best" from="-4612970#1" to="4773029#0"/>
    <trip id="veh149" type="veh_passenger" depart="348.26" departLane="best" from="195397561#2" to="15971197#1"/>
    <trip id="veh150" type="veh_passenger" depart="350.60" departLane="best" from="4611694#0" to="-755551646#0"/>
    <trip id="veh151" type="veh_passenger" depart="352.93" departLane="best" departSpeed="max" from="11549897" to="54781811#1"/>
    <trip id="veh152" type="veh_passenger" depart="355.27" departLane="best" departSpeed="max" from="830728708#0" to="120675240#4"/>
    <trip id="veh153" type="veh_passenger" depart="357.61" departLane="best" from="30721660#3" to="190447767"/>
    <trip id="veh154" type="veh_passenger" depart="359.95" departLane="best" departSpeed="max" from="831860725#0" to="24913304#2"/>
    <trip id="veh155" type="veh_passenger" depart="362.28" departLane="best" departSpeed="max" from="755551647" to="-24993933#0"/>
    <trip id="veh156" type="veh_passenger" depart="364.62" departLane="best" from="830728708#1" to="-4588217"/>
    <trip id="veh157" type="veh_passenger" depart="366.96" departLane="best" from="82659290#0" to="112128418#3"/>
    <trip id="veh158" type="veh_passenger" depart="369.30" departLane="best" from="-24242882#0" to="202156991#2"/>
    <trip id="veh159" type="veh_passenger" depart="371.63" departLane="best" from="380240681" to="168937986#3"/>
    <trip id="veh160" type="veh_passenger" depart="373.97" departLane="best" from="289966845" to="24243052#1"/>
    <trip id="veh162" type="veh_passenger" depart="378.65" departLane="best" from="-55741054" to="4067932#1"/>
    <trip id="veh164" type="veh_passenger" depart="383.32" departLane="best" from="24243052#4" to="43231842#0"/>
    <trip id="veh165" type="veh_passenger" depart="385.66" departLane="best" from="427637455" to="340498988#0"/>
    <trip id="veh166" type="veh_passenger" depart="387.99" departLane="best" from="156364553#1" to="-195104960#0"/>
    <trip id="veh167" type="veh_passenger" depart="390.33" departLane="best" from="310177222#1" to="169195795#0"/>
    <trip id="veh169" type="veh_passenger" depart="395.01" departLane="best" from="35578576#2" to="156364566#1"/>
    <trip id="veh170" type="veh_passenger" depart="397.34" departLane="best" departSpeed="max" from="111833185#0" to="195104960#1"/>
    <trip id="veh171" type="veh_passenger" depart="399.68" departLane="best" from="169195795#4" to="155186522"/>
    <trip id="veh172" type="veh_passenger" depart="402.02" departLane="best" from="-24993933#4" to="195401013#3"/>
    <trip id="veh173" type="veh_passenger" depart="404.36" departLane="best" departSpeed="max" from="755551647" to="344594961"/>
    <trip id="veh174" type="veh_passenger" depart="406.69" departLane="best" from="61584187#1" to="309479676"/>
    <trip id="veh177" type="veh_passenger" depart="413.71" departLane="best" from="309479676" to="236092221#2"/>
    <trip id="veh178" type="veh_passenger" depart="416.04" departLane="best" from="188386313#0" to="-6227658#3"/>
    <trip id="veh179" type="veh_passenger" depart="418.38" departLane="best" from="195411604" to="66071366#1"/>
    <trip id="veh180" type="veh_passenger" depart="420.72" departLane="best" from="4611694#1" to="-4402014#2"/>
    <trip id="veh181" type="veh_passenger" depart="423.05" departLane="best" from="-23121445#0" to="24243056"/>
    <trip id="veh182" type="veh_passenger" depart="425.39" departLane="best" from="305093328#0" to="169195795#5"/>
    <trip id="veh183" type="veh_passenger" depart="427.73" departLane="best" from="4612969#2" to="4610362#3"/>
    <trip id="veh184" type="veh_passenger" depart="430.07" departLane="best" from="-454285423#0" to="-131505631#0"/>
    <trip id="veh185" type="veh_passenger" depart="432.40" departLane="best" departSpeed="max" from="-505475202#1" to="23813206#2"/>
    <trip id="veh186" type="veh_passenger" depart="434.74" departLane="best" departSpeed="max" from="4790799" to="-195397541#1"/>
    <trip id="veh187" type="veh_passenger" depart="437.08" departLane="best" from="169999355#0" to="312176585#2"/>
    <trip id="veh188" type="veh_passenger" depart="439.42" departLane="best" from="-4402014#3" to="35578576#2"/>
    <trip id="veh189" type="veh_passenger" depart="441.75" departLane="best" from="225400578#1" to="-874528353#0"/>
    <trip id="veh191" type="veh_passenger" depart="446.43" departLane="best" from="43231842#2" to="4611698#1"/>
    <trip id="veh192" type="veh_passenger" depart="448.76" departLane="best" from="-24241790#2" to="195407521"/>
    <trip id="veh193" type="veh_passenger" depart="451.10" departLane="best" from="-35578576#0" to="82652397#0"/>
    <trip id="veh194" type="veh_passenger" depart="453.44" departLane="best" from="23809670#1" to="-168940071#3"/>
    <trip id="veh195" type="veh_passenger" depart="455.78" departLane="best" departSpeed="max" from="-51167934#4" to="54048862#0"/>
    <trip id="veh196" type="veh_passenger" depart="458.11" departLane="best" from="194962375#2" to="4613295"/>
    <trip id="veh197" type="veh_passenger" depart="460.45" departLane="best" from="312176585#1" to="840860363#0"/>
    <trip id="veh198" type="veh_passenger" depart="462.79" departLane="best" from="28016312#0" to="82649618"/>
    <trip id="veh199" type="veh_passenger" depart="465.13" departLane="best" from="606078065" to="309155392"/>
    <trip id="veh200" type="veh_passenger" depart="467.46" departLane="best" from="35578576#1" to="24242882#3"/>
    <trip id="veh201" type="veh_passenger" depart="469.80" departLane="best" from="46140382" to="24992424#3"/>
    <trip id="veh202" type="veh_passenger" depart="472.14" departLane="best" from="61583423#0" to="4610351#0"/>
    <trip id="veh203" type="veh_passenger" depart="474.48" departLane="best" departSpeed="max" from="196850609#0" to="111833185#1"/>
    <trip id="veh205" type="veh_passenger" depart="479.15" departLane="best" from="4403559#2" to="24540242#1"/>
    <trip id="veh206" type="veh_passenger" depart="481.49" departLane="best" from="301733776" to="112128419#2"/>
    <trip id="veh207" type="veh_passenger" depart="483.82" departLane="best" from="-202156991#1" to="136571494#1"/>
    <trip id="veh208" type="veh_passenger" depart="486.16" departLane="best" from="-751595928#1" to="168942727#1"/>
    <trip id="veh209" type="veh_passenger" depart="488.50" departLane="best" from="24243092#1" to="-316746323#0"/>
    <trip id="veh210" type="veh_passenger" depart="490.84" departLane="best" departSpeed="max" from="-465398529#2" to="35557161"/>
    <trip id="veh211" type="veh_passenger" depart="493.17" departLane="best" from="340498982#8" to="-19002363#3"/>
    <trip id="veh212" type="veh_passenger" depart="495.51" departLane="best" from="169195795#7" to="24913519#2"/>
    <trip id="veh214" type="veh_passenger" depart="500.19" departLane="best" from="171826985#3" to="66311464#1"/>
    <trip id="veh215" type="veh_passenger" depart="502.52" departLane="best" departSpeed="max" from="24990776" to="35578576#0"/>
    <trip id="veh216" type="veh_passenger" depart="504.86" departLane="best" from="492340367#1" to="4611694#0"/>
    <trip id="veh218" type="veh_passenger" depart="509.54" departLane="best" from="136571494#3" to="4610362#6"/>
    <trip id="veh219" type="veh_passenger" depart="511.87" departLane="best" from="490365295#0" to="82652397#0"/>
    <trip id="veh220" type="veh_passenger" depart="514.21" departLane="best" from="171826985#1" to="4610355"/>
    <trip id="veh221" type="veh_passenger" depart="516.55" departLane="best" from="24540242#1" to="30721660#3"/>
    <trip id="veh222" type="veh_passenger" depart="518.88" departLane="best" from="-4612968#3" to="-66071370"/>
    <trip id="veh223" type="veh_passenger" depart="521.22" departLane="best" departSpeed="max" from="187111590#0" to="-136571494#3"/>
    <trip id="veh224" type="veh_passenger" depart="523.56" departLane="best" from="120675240#3" to="344594961"/>
    <trip id="veh225" type="veh_passenger" depart="525.90" departLane="best" from="169195795#5" to="-437325047#2"/>
    <trip id="veh226" type="veh_passenger" depart="528.23" departLane="best" from="195401013#3" to="-310176513#1"/>
    <trip id="veh227" type="veh_passenger" depart="530.57" departLane="best" from="301241681#4" to="-136571494#0"/>
    <trip id="veh228" type="veh_passenger" depart="532.91" departLane="best" from="168943639#2" to="289966281"/>
    <trip id="veh229" type="veh_passenger" depart="535.25" departLane="best" from="-292429062#0" to="234463931#3"/>
    <trip id="veh230" type="veh_passenger" depart="537.58" departLane="best" from="-169999355#2" to="188044903#0"/>
    <trip id="veh231" type="veh_passenger" depart="539.92" departLane="best" from="-4611696#4" to="168943640#0"/>
    <trip id="veh232" type="veh_passenger" depart="542.26" departLane="best" from="4402014#3" to="188044903#0"/>
    <trip id="veh234" type="veh_passenger" depart="546.93" departLane="best" departSpeed="max" from="-51167934#4" to="-23121445#0"/>
    <trip id="veh235" type="veh_passenger" depart="549.27" departLane="best" from="-136571494#4" to="24913304#2"/>
    <trip id="veh236" type="veh_passenger" depart="551.61" departLane="best" from="309155392" to="4612961#1"/>
    <trip id="veh237" type="veh_passenger" depart="553.94" departLane="best" from="309479676" to="4610362#7"/>
    <trip id="veh238" type="veh_passenger" depart="556.28" departLane="best" from="-153698380#2" to="-370359204#0"/>
    <trip id="veh239" type="veh_passenger" depart="558.62" departLane="best" from="-24992424#5" to="340498982#8"/>
    <trip id="veh240" type="veh_passenger" depart="560.96" departLane="best" departSpeed="max" from="24914141#0" to="-66071366#1"/>
    <trip id="veh241" type="veh_passenger" depart="563.29" departLane="best" from="340498976#1" to="4611694#1"/>
    <trip id="veh242" type="veh_passenger" depart="565.63" departLane="best" from="-339201177#3" to="30721662#2"/>
    <trip id="veh243" type="veh_passenger" depart="567.97" departLane="best" from="43164692" to="-24993933#0"/>
    <trip id="veh244" type="veh_passenger" depart="570.31" departLane="best" from="-24242882#0" to="-132600840#0"/>
    <trip id="veh245" type="veh_passenger" depart="572.64" departLane="best" from="111833186#1" to="344594961"/>
    <trip id="veh246" type="veh_passenger" depart="574.98" departLane="best" from="82658671#1" to="19002363#8"/>
    <trip id="veh247" type="veh_passenger" depart="577.32" departLane="best" from="318282850#2" to="312176585#2"/>
    <trip id="veh248" type="veh_passenger" depart="579.65" departLane="best" departSpeed="max" from="-23813206#2" to="4611706#1"/>
    <trip id="veh249" type="veh_passenger" depart="581.99" departLane="best" departSpeed="max" from="4790799" to="30720544#1"/>
    <trip id="veh250" type="veh_passenger" depart="584.33" departLane="best" from="4610362#6" to="171423001#0"/>
    <trip id="veh251" type="veh_passenger" depart="586.67" departLane="best" from="234463931#1" to="169195795#8"/>
    <trip id="veh252" type="veh_passenger" depart="589.00" departLane="best" departSpeed="max" from="4790799" to="4773465#3"/>
    <trip id="veh253" type="veh_passenger" depart="591.34" departLane="best" departSpeed="max" from="-24241762#2" to="82652397#0"/>
    <trip id="veh254" type="veh_passenger" depart="593.68" departLane="best" from="305153173" to="47935842"/>
    <trip id="veh255" type="veh_passenger" depart="596.02" departLane="best" from="340498982#9" to="202156991#2"/>
    <trip id="veh256" type="veh_passenger" depart="598.35" departLane="best" from="389705415#1" to="82658674#1"/>
    <trip id="veh257" type="veh_passenger" depart="600.69" departLane="best" from="-743631784" to="465376243#0"/>
    <trip id="veh258" type="veh_passenger" depart="603.03" departLane="best" from="24243052#4" to="23851930"/>
    <trip id="veh259" type="veh_passenger" depart="605.37" departLane="best" departSpeed="max" from="187111590#0" to="4402014#3"/>
    <trip id="veh260" type="veh_passenger" depart="607.70" departLane="best" from="-66071379#0" to="54048862#1"/>
    <trip id="veh261" type="veh_passenger" depart="610.04" departLane="best" from="60333309#0" to="-874528353#0"/>
    <trip id="veh262" type="veh_passenger" depart="612.38" departLane="best" from="195401013#2" to="309147331#0"/>
    <trip id="veh263" type="veh_passenger" depart="614.71" departLane="best" departSpeed="max" from="165415464#0" to="-136571494#2"/>
    <trip id="veh264" type="veh_passenger" depart="617.05" departLane="best" departSpeed="max" from="4790799" to="-4610472#2"/>
    <trip id="veh265" type="veh_passenger" depart="619.39" departLane="best" from="-4611706#0" to="4613293"/>
    <trip id="veh266" type="veh_passenger" depart="621.73" departLane="best" departSpeed="max" from="122820534#0" to="606078065"/>
    <trip id="veh267" type="veh_passenger" depart="624.06" departLane="best" from="-122820534#0" to="82649618"/>
    <trip id="veh268" type="veh_passenger" depart="626.40" departLane="best" from="-23121445#2" to="43231842#1"/>
    <trip id="veh269" type="veh_passenger" depart="628.74" departLane="best" from="202157002#1" to="4610472#2"/>