<?xml version="1.0" encoding="UTF-8"?>

<!-- generated on 12/12/20 22:44:22 by Eclipse SUMO duarouter Version 1.7.0
<configuration xmlns:xsi="http://www.w3.org/2001/XMLSchema-instance" xsi:noNamespaceSchemaLocation="http://sumo.dlr.de/xsd/duarouterConfiguration.xsd">

    <input>
        <net-file value="D:\github\sumo-learning\2020-12-12-22-44-15\osm.net.xml"/>
        <route-files value="D:\github\sumo-learning\2020-12-12-22-44-15\osm.passenger.trips.xml"/>
    </input>

    <output>
        <output-file value="D:\github\sumo-learning\2020-12-12-22-44-15\osm.passenger.trips.xml.tmp"/>
        <write-trips value="true"/>
    </output>

    <time>
        <begin value="0"/>
        <end value="1000"/>
    </time>

    <report>
        <no-warnings value="true"/>
        <ignore-errors value="true"/>
        <no-step-log value="true"/>
    </report>

</configuration>
-->

<routes xmlns:xsi="http://www.w3.org/2001/XMLSchema-instance" xsi:noNamespaceSchemaLocation="http://sumo.dlr.de/xsd/routes_file.xsd">
    <vType id="veh_passenger" vClass="passenger"/>
    <trip id="veh0" type="veh_passenger" depart="0.00" departLane="best" departSpeed="max" from="374332385#0" to="-374332362#2"/>
    <trip id="veh3" type="veh_passenger" depart="3.15" departLane="best" departSpeed="max" from="264859962#0" to="-374332362#2"/>
    <trip id="veh4" type="veh_passenger" depart="4.20" departLane="best" departSpeed="max" from="-824669534" to="291325260#6"/>
    <trip id="veh5" type="veh_passenger" depart="5.25" departLane="best" departSpeed="max" from="-311319110#10" to="-593840519#3"/>
    <trip id="veh6" type="veh_passenger" depart="6.30" departLane="best" from="155804118#0" to="310620432#0"/>
    <trip id="veh7" type="veh_passenger" depart="7.35" departLane="best" departSpeed="max" from="506599420#0" to="-311346862#3"/>
    <trip id="veh8" type="veh_passenger" depart="8.40" departLane="best" departSpeed="max" from="506599420#0" to="374332387#6"/>
    <trip id="veh9" type="veh_passenger" depart="9.45" departLane="best" departSpeed="max" from="248976980#0" to="-506599420#0"/>
    <trip id="veh10" type="veh_passenger" depart="10.50" departLane="best" departSpeed="max" from="593840519#0" to="268564485#14"/>
    <trip id="veh11" type="veh_passenger" depart="11.55" departLane="best" from="-406125538#12" to="-49788394#0"/>
    <trip id="veh13" type="veh_passenger" depart="13.65" departLane="best" departSpeed="max" from="506599420#0" to="401376480#4"/>
    <trip id="veh14" type="veh_passenger" depart="14.70" departLane="best" departSpeed="max" from="374332385#0" to="824669534"/>
    <trip id="veh15" type="veh_passenger" depart="15.75" departLane="best" departSpeed="max" from="248976980#0" to="291325260#6"/>
    <trip id="veh16" type="veh_passenger" depart="16.80" departLane="best" departSpeed="max" from="506599420#0" to="311319110#9"/>
    <trip id="veh20" type="veh_passenger" depart="21.00" departLane="best" departSpeed="max" from="-437870662#4" to="268564485#14"/>
    <trip id="veh21" type="veh_passenger" depart="22.05" departLane="best" departSpeed="max" from="374332385#0" to="268564485#14"/>
    <trip id="veh22" type="veh_passenger" depart="23.10" departLane="best" departSpeed="max" from="248976980#0" to="-593840519#3"/>
    <trip id="veh24" type="veh_passenger" depart="25.20" departLane="best" departSpeed="max" from="374332385#0" to="311319110#9"/>
    <trip id="veh25" type="veh_passenger" depart="26.25" departLane="best" departSpeed="max" from="-50160154#11" to="401376480#4"/>
    <trip id="veh31" type="veh_passenger" depart="32.55" departLane="best" departSpeed="max" from="374332385#0" to="268564485#14"/>
    <trip id="veh33" type="veh_passenger" depart="34.65" departLane="best" departSpeed="max" from="374332385#0" to="268564485#14"/>
    <trip id="veh34" type="veh_passenger" depart="35.70" departLane="best" departSpeed="max" from="374332385#0" to="506316032#0"/>
    <trip id="veh37" type="veh_passenger" depart="38.85" departLane="best" from="-375408688#0" to="-374332362#2"/>
    <trip id="veh38" type="veh_passenger" depart="39.90" departLane="best" departSpeed="max" from="-437870662#4" to="311319110#9"/>
    <trip id="veh39" type="veh_passenger" depart="40.95" departLane="best" departSpeed="max" from="506316039#0" to="269542356"/>
    <trip id="veh40" type="veh_passenger" depart="42.00" departLane="best" departSpeed="max" from="-311346862#7" to="268564485#14"/>
    <trip id="veh43" type="veh_passenger" depart="45.15" departLane="best" departSpeed="max" from="-311319110#10" to="401376480#1"/>
    <trip id="veh44" type="veh_passenger" depart="46.20" departLane="best" departSpeed="max" from="451928555#0" to="291325260#6"/>
    <trip id="veh45" type="veh_passenger" depart="47.25" departLane="best" departSpeed="max" from="248976980#0" to="311346862#7"/>
    <trip id="veh46" type="veh_passenger" depart="48.30" departLane="best" departSpeed="max" from="-437870662#4" to="269542356"/>
    <trip id="veh49" type="veh_passenger" depart="51.45" departLane="best" departSpeed="max" from="374332362#0" to="-593840519#3"/>
    <trip id="veh50" type="veh_passenger" depart="52.50" departLane="best" departSpeed="max" from="51268713#0" to="50160155"/>
    <trip id="veh51" type="veh_passenger" depart="53.55" departLane="best" departSpeed="max" from="248976980#0" to="311346862#7"/>
    <trip id="veh52" type="veh_passenger" depart="54.60" departLane="best" departSpeed="max" from="374332385#0" to="-506599420#0"/>
    <trip id="veh53" type="veh_passenger" depart="55.65" departLane="best" from="50160154#9" to="291325260#6"/>
    <trip id="veh54" type="veh_passenger" depart="56.70" departLane="best" departSpeed="max" from="506316039#0" to="291325260#6"/>
    <trip id="veh55" type="veh_passenger" depart="57.75" departLane="best" from="-310620433#2" to="268564485#14"/>
    <trip id="veh58" type="veh_passenger" depart="60.90" departLane="best" departSpeed="max" from="248976980#0" to="-437870662#1"/>
    <trip id="veh59" type="veh_passenger" depart="61.95" departLane="best" from="-317388747#1" to="291325260#6"/>
    <trip id="veh60" type="veh_passenger" depart="63.00" departLane="best" departSpeed="max" from="-311346862#7" to="406125538#17"/>
    <trip id="veh61" type="veh_passenger" depart="64.05" departLane="best" departSpeed="max" from="506316039#0" to="-49788394#0"/>
    <trip id="veh62" type="veh_passenger" depart="65.10" departLane="best" from="312715996#4" to="291325260#6"/>
    <trip id="veh63" type="veh_passenger" depart="66.15" departLane="best" departSpeed="max" from="264859962#0" to="-593840519#6"/>
    <trip id="veh64" type="veh_passenger" depart="67.20" departLane="best" departSpeed="max" from="374332385#0" to="401376480#4"/>
    <trip id="veh65" type="veh_passenger" depart="68.25" departLane="best" departSpeed="max" from="-824669534" to="268564485#14"/>
    <trip id="veh67" type="veh_passenger" depart="70.35" departLane="best" departSpeed="max" from="264859962#0" to="291325260#6"/>
    <trip id="veh69" type="veh_passenger" depart="72.45" departLane="best" departSpeed="max" from="248976980#0" to="291325260#6"/>
    <trip id="veh74" type="veh_passenger" depart="77.70" departLane="best" departSpeed="max" from="593840519#0" to="291325260#6"/>
    <trip id="veh75" type="veh_passenger" depart="78.75" departLane="best" from="311346862#4" to="437870662#3"/>
    <trip id="veh76" type="veh_passenger" depart="79.80" departLane="best" departSpeed="max" from="506599420#0" to="-593840519#3"/>
    <trip id="veh77" type="veh_passenger" depart="80.85" departLane="best" from="-437870662#1" to="269542356"/>
    <trip id="veh78" type="veh_passenger" depart="81.90" departLane="best" departSpeed="max" from="264859962#0" to="291325260#6"/>
    <trip id="veh79" type="veh_passenger" depart="82.95" departLane="best" departSpeed="max" from="49788394#0" to="317388747#1"/>
    <trip id="veh82" type="veh_passenger" depart="86.10" departLane="best" departSpeed="max" from="-824669534" to="291325260#6"/>
    <trip id="veh83" type="veh_passenger" depart="87.15" departLane="best" departSpeed="max" from="264859962#0" to="268564485#14"/>
    <trip id="veh85" type="veh_passenger" depart="89.25" departLane="best" departSpeed="max" from="264859962#0" to="50160155"/>
    <trip id="veh86" type="veh_passenger" depart="90.30" departLane="best" departSpeed="max" from="374332385#0" to="-375408687#3"/>
    <trip id="veh92" type="veh_passenger" depart="96.60" departLane="best" departSpeed="max" from="248976980#0" to="824669534"/>
    <trip id="veh93" type="veh_passenger" depart="97.65" departLane="best" departSpeed="max" from="248976980#0" to="437870662#3"/>
    <trip id="veh94" type="veh_passenger" depart="98.70" departLane="best" from="268564485#4" to="269542356"/>
    <trip id="veh95" type="veh_passenger" depart="99.75" departLane="best" departSpeed="max" from="593840519#0" to="824669534"/>
    <trip id="veh96" type="veh_passenger" depart="100.80" departLane="best" departSpeed="max" from="374332385#0" to="375408687#2"/>
    <trip id="veh98" type="veh_passenger" depart="102.90" departLane="best" departSpeed="max" from="374332385#0" to="401376480#4"/>
    <trip id="veh99" type="veh_passenger" depart="103.95" departLane="best" departSpeed="max" from="-311346862#7" to="291325260#6"/>
    <trip id="veh100" type="veh_passenger" depart="105.00" departLane="best" departSpeed="max" from="374332362#0" to="50160155"/>
    <trip id="veh101" type="veh_passenger" depart="106.05" departLane="best" departSpeed="max" from="-50160154#11" to="51268713#6"/>
    <trip id="veh102" type="veh_passenger" depart="107.10" departLane="best" departSpeed="max" from="-311346862#7" to="-593840519#3"/>
    <trip id="veh103" type="veh_passenger" depart="108.15" departLane="best" departSpeed="max" from="374332385#0" to="374332362#4"/>
    <trip id="veh106" type="veh_passenger" depart="111.30" departLane="best" departSpeed="max" from="374332385#0" to="311319110#9"/>
    <trip id="veh107" type="veh_passenger" depart="112.35" departLane="best" departSpeed="max" from="264859962#0" to="291325260#6"/>
    <trip id="veh109" type="veh_passenger" depart="114.45" departLane="best" departSpeed="max" from="-824669534" to="374332387#6"/>
    <trip id="veh111" type="veh_passenger" depart="116.55" departLane="best" from="375408687#3" to="268564485#14"/>
    <trip id="veh112" type="veh_passenger" depart="117.60" departLane="best" departSpeed="max" from="248976980#0" to="401376480#4"/>
    <trip id="veh113" type="veh_passenger" depart="118.65" departLane="best" departSpeed="max" from="-311346862#7" to="291325260#6"/>
    <trip id="veh117" type="veh_passenger" depart="122.85" departLane="best" departSpeed="max" from="248976980#0" to="-506599420#0"/>
    <trip id="veh118" type="veh_passenger" depart="123.90" departLane="best" departSpeed="max" from="506599420#0" to="374332387#6"/>
    <trip id="veh119" type="veh_passenger" depart="124.95" departLane="best" departSpeed="max" from="374332385#0" to="824669534"/>
    <trip id="veh120" type="veh_passenger" depart="126.00" departLane="best" departSpeed="max" from="374332385#0" to="-312715996#0"/>
    <trip id="veh121" type="veh_passenger" depart="127.05" departLane="best" departSpeed="max" from="506599420#0" to="268564485#14"/>
    <trip id="veh123" type="veh_passenger" depart="129.15" departLane="best" departSpeed="max" from="-437870662#4" to="-49788394#0"/>
    <trip id="veh124" type="veh_passenger" depart="130.20" departLane="best" departSpeed="max" from="-437870662#4" to="291325260#6"/>
    <trip id="veh125" type="veh_passenger" depart="131.25" departLane="best" departSpeed="max" from="248976980#0" to="311319110#9"/>
    <trip id="veh126" type="veh_passenger" depart="132.30" departLane="best" departSpeed="max" from="451928555#0" to="-593840519#3"/>
    <trip id="veh127" type="veh_passenger" depart="133.35" departLane="best" departSpeed="max" from="374332385#0" to="268564485#14"/>
    <trip id="veh128" type="veh_passenger" depart="134.40" departLane="best" departSpeed="max" from="374332362#0" to="506316032#0"/>
    <trip id="veh130" type="veh_passenger" depart="136.50" departLane="best" departSpeed="max" from="264859962#0" to="268564485#14"/>
    <trip id="veh131" type="veh_passenger" depart="137.55" departLane="best" departSpeed="max" from="-311319110#10" to="437870662#3"/>
    <trip id="veh132" type="veh_passenger" depart="138.60" departLane="best" departSpeed="max" from="374332385#0" to="268564485#14"/>
    <trip id="veh133" type="veh_passenger" depart="139.65" departLane="best" departSpeed="max" from="49788394#0" to="291325260#6"/>
    <trip id="veh134" type="veh_passenger" depart="140.70" departLane="best" departSpeed="max" from="264859962#0" to="-312715996#5"/>
    <trip id="veh135" type="veh_passenger" depart="141.75" departLane="best" departSpeed="max" from="506599420#0" to="291325260#6"/>
    <trip id="veh136" type="veh_passenger" depart="142.80" departLane="best" departSpeed="max" from="-50160154#11" to="-49788394#0"/>
    <trip id="veh137" type="veh_passenger" depart="143.85" departLane="best" departSpeed="max" from="248976980#0" to="506316032#0"/>
    <trip id="veh138" type="veh_passenger" depart="144.90" departLane="best" departSpeed="max" from="506316039#0" to="50160155"/>
    <trip id="veh139" type="veh_passenger" depart="145.95" departLane="best" departSpeed="max" from="51268713#0" to="-593840519#3"/>
    <trip id="veh141" type="veh_passenger" depart="148.05" departLane="best" departSpeed="max" from="248976980#0" to="311319110#9"/>
    <trip id="veh144" type="veh_passenger" depart="151.20" departLane="best" departSpeed="max" from="506599420#0" to="506316032#0"/>
    <trip id="veh145" type="veh_passenger" depart="152.25" departLane="best" departSpeed="max" from="-311319110#10" to="401376480#4"/>
    <trip id="veh147" type="veh_passenger" depart="154.35" departLane="best" departSpeed="max" from="506599420#0" to="50160155"/>
    <trip id="veh148" type="veh_passenger" depart="155.40" departLane="best" departSpeed="max" from="506599420#0" to="268564485#14"/>
    <trip id="veh149" type="veh_passenger" depart="156.45" departLane="best" departSpeed="max" from="506316039#0" to="-49788394#0"/>
    <trip id="veh152" type="veh_passenger" depart="159.60" departLane="best" from="291325260#1" to="268564485#14"/>
    <trip id="veh154" type="veh_passenger" depart="161.70" departLane="best" departSpeed="max" from="-311319110#10" to="-593840519#3"/>
    <trip id="veh156" type="veh_passenger" depart="163.80" departLane="best" departSpeed="max" from="374332385#0" to="268564485#2"/>
    <trip id="veh158" type="veh_passenger" depart="165.90" departLane="best" departSpeed="max" from="593840519#0" to="-49788394#0"/>
    <trip id="veh160" type="veh_passenger" depart="168.00" departLane="best" from="593840519#6" to="268564485#14"/>
    <trip id="veh161" type="veh_passenger" depart="169.05" departLane="best" departSpeed="max" from="-437870662#4" to="269542356"/>
    <trip id="veh162" type="veh_passenger" depart="170.10" departLane="best" departSpeed="max" from="49788394#0" to="268564485#14"/>
    <trip id="veh163" type="veh_passenger" depart="171.15" departLane="best" departSpeed="max" from="248976980#0" to="291325260#6"/>
    <trip id="veh165" type="veh_passenger" depart="173.25" departLane="best" departSpeed="max" from="374332385#0" to="375408687#3"/>
    <trip id="veh166" type="veh_passenger" depart="174.30" departLane="best" departSpeed="max" from="49788394#0" to="312715996#2"/>
    <trip id="veh168" type="veh_passenger" depart="176.40" departLane="best" from="374332385#2" to="268564485#14"/>
    <trip id="veh169" type="veh_passenger" depart="177.45" departLane="best" from="451928557#1" to="268564485#14"/>
    <trip id="veh170" type="veh_passenger" depart="178.50" departLane="best" departSpeed="max" from="248976980#0" to="269542356"/>
    <trip id="veh171" type="veh_passenger" depart="179.55" departLane="best" departSpeed="max" from="-437870662#4" to="269542356"/>
    <trip id="veh173" type="veh_passenger" depart="181.65" departLane="best" departSpeed="max" from="51268713#0" to="311319110#9"/>
    <trip id="veh174" type="veh_passenger" depart="182.70" departLane="best" departSpeed="max" from="248976980#0" to="291325260#6"/>
    <trip id="veh175" type="veh_passenger" depart="183.75" departLane="best" from="-310620433#2" to="268564485#14"/>
    <trip id="veh176" type="veh_passenger" depart="184.80" departLane="best" departSpeed="max" from="264859962#0" to="291325260#6"/>
    <trip id="veh178" type="veh_passenger" depart="186.90" departLane="best" departSpeed="max" from="506316039#0" to="-506599420#3"/>
    <trip id="veh179" type="veh_passenger" depart="187.95" departLane="best" from="-312715996#9" to="291325260#6"/>
    <trip id="veh180" type="veh_passenger" depart="189.00" departLane="best" departSpeed="max" from="374332385#0" to="268564485#14"/>
    <trip id="veh181" type="veh_passenger" depart="190.05" departLane="best" departSpeed="max" from="506599420#0" to="401376480#4"/>
    <trip id="veh182" type="veh_passenger" depart="191.10" departLane="best" departSpeed="max" from="-824669534" to="-374332362#2"/>
    <trip id="veh184" type="veh_passenger" depart="193.20" departLane="best" departSpeed="max" from="264859962#0" to="311319110#9"/>
    <trip id="veh185" type="veh_passenger" depart="194.25" departLane="best" departSpeed="max" from="-824669534" to="374332387#6"/>
    <trip id="veh187" type="veh_passenger" depart="196.35" departLane="best" departSpeed="max" from="374332385#0" to="-311319110#8"/>
    <trip id="veh188" type="veh_passenger" depart="197.40" departLane="best" departSpeed="max" from="49788394#0" to="437870662#3"/>
    <trip id="veh189" type="veh_passenger" depart="198.45" departLane="best" departSpeed="max" from="-437870662#4" to="269542356"/>
    <trip id="veh190" type="veh_passenger" depart="199.50" departLane="best" from="-506599420#3" to="51268711#2"/>
    <trip id="veh191" type="veh_passenger" depart="200.55" departLane="best" departSpeed="max" from="374332385#0" to="-375408687#2"/>
    <trip id="veh193" type="veh_passenger" depart="202.65" departLane="best" from="268564485#7" to="451928560#1"/>
    <trip id="veh195" type="veh_passenger" depart="204.75" departLane="best" departSpeed="max" from="51268713#0" to="311319110#9"/>
    <trip id="veh196" type="veh_passenger" depart="205.80" departLane="best" departSpeed="max" from="506599420#0" to="291325260#6"/>
    <trip id="veh197" type="veh_passenger" depart="206.85" departLane="best" departSpeed="max" from="51268713#0" to="401376480#4"/>
    <trip id="veh198" type="veh_passenger" depart="207.90" departLane="best" from="312715996#3" to="268564485#14"/>
    <trip id="veh200" type="veh_passenger" depart="210.00" departLane="best" departSpeed="max" from="506316039#0" to="291325260#6"/>
    <trip id="veh201" type="veh_passenger" depart="211.05" departLane="best" departSpeed="max" from="374332385#0" to="268564485#14"/>
    <trip id="veh202" type="veh_passenger" depart="212.10" departLane="best" departSpeed="max" from="-311346862#7" to="268564485#14"/>
    <trip id="veh203" type="veh_passenger" depart="213.15" departLane="best" departSpeed="max" from="374332385#0" to="-506599420#0"/>
    <trip id="veh205" type="veh_passenger" depart="215.25" departLane="best" from="248976980#10" to="291325260#6"/>
    <trip id="veh206" type="veh_passenger" depart="216.30" departLane="best" departSpeed="max" from="264859962#0" to="-593840519#3"/>
    <trip id="veh207" type="veh_passenger" depart="217.35" departLane="best" departSpeed="max" from="264859962#0" to="506316032#0"/>
    <trip id="veh209" type="veh_passenger" depart="219.45" departLane="best" departSpeed="max" from="248976980#0" to="-311346862#1"/>
    <trip id="veh210" type="veh_passenger" depart="220.50" departLane="best" departSpeed="max" from="248976980#0" to="401376480#4"/>
    <trip id="veh211" type="veh_passenger" depart="221.55" departLane="best" departSpeed="max" from="374332385#0" to="311319110#9"/>
    <trip id="veh213" type="veh_passenger" depart="223.65" departLane="best" departSpeed="max" from="264859962#0" to="-374332362#2"/>
    <trip id="veh214" type="veh_passenger" depart="224.70" departLane="best" departSpeed="max" from="248976980#0" to="374332385#6"/>
    <trip id="veh215" type="veh_passenger" depart="225.75" departLane="best" departSpeed="max" from="248976980#0" to="-506599420#0"/>
    <trip id="veh216" type="veh_passenger" depart="226.80" departLane="best" from="311319108#2" to="-49788394#0"/>
    <trip id="veh217" type="veh_passenger" depart="227.85" departLane="best" departSpeed="max" from="374332385#0" to="-374332362#2"/>
    <trip id="veh218" type="veh_passenger" depart="228.90" departLane="best" departSpeed="max" from="248976980#0" to="291325260#6"/>
    <trip id="veh219" type="veh_passenger" depart="229.95" departLane="best" from="-452116335#2" to="291325260#6"/>
    <trip id="veh220" type="veh_passenger" depart="231.00" departLane="best" departSpeed="max" from="-311346862#7" to="268564485#14"/>
    <trip id="veh221" type="veh_passenger" depart="232.05" departLane="best" departSpeed="max" from="-824669534" to="268564485#14"/>
    <trip id="veh222" type="veh_passenger" depart="233.10" departLane="best" from="50160154#3" to="268564485#14"/>
    <trip id="veh223" type="veh_passenger" depart="234.15" departLane="best" departSpeed="max" from="49788394#0" to="50160154#10"/>
    <trip id="veh225" type="veh_passenger" depart="236.25" departLane="best" departSpeed="max" from="-311319110#10" to="291325260#6"/>
    <trip id="veh227" type="veh_passenger" depart="238.35" departLane="best" departSpeed="max" from="374332385#0" to="437870662#3"/>
    <trip id="veh228" type="veh_passenger" depart="239.40" departLane="best" departSpeed="max" from="374332385#0" to="401376480#4"/>
    <trip id="veh229" type="veh_passenger" depart="240.45" departLane="best" departSpeed="max" from="-311319110#10" to="-506599420#0"/>
    <trip id="veh230" type="veh_passenger" depart="241.50" departLane="best" departSpeed="max" from="-437870662#4" to="311346862#7"/>
    <trip id="veh232" type="veh_passenger" depart="243.60" departLane="best" departSpeed="max" from="451928555#0" to="437870662#3"/>
    <trip id="veh233" type="veh_passenger" depart="244.65" departLane="best" departSpeed="max" from="-50160154#11" to="311319110#9"/>
    <trip id="veh234" type="veh_passenger" depart="245.70" departLane="best" departSpeed="max" from="506599420#0" to="824669534"/>
    <trip id="veh235" type="veh_passenger" depart="246.75" departLane="best" departSpeed="max" from="-437870662#4" to="-374332362#2"/>
    <trip id="veh237" type="veh_passenger" depart="248.85" departLane="best" departSpeed="max" from="593840519#0" to="268564485#14"/>
    <trip id="veh239" type="veh_passenger" depart="250.95" departLane="best" departSpeed="max" from="451928555#0" to="311319110#9"/>
    <trip id="veh241" type="veh_passenger" depart="253.05" departLane="best" departSpeed="max" from="-437870662#4" to="824669534"/>
    <trip id="veh242" type="veh_passenger" depart="254.10" departLane="best" departSpeed="max" from="506316039#0" to="268564485#14"/>
    <trip id="veh243" type="veh_passenger" depart="255.15" departLane="best" departSpeed="max" from="264859962#0" to="268564485#14"/>
    <trip id="veh244" type="veh_passenger" depart="256.20" departLane="best" departSpeed="max" from="374332362#0" to="268564485#14"/>
    <trip id="veh246" type="veh_passenger" depart="258.30" departLane="best" departSpeed="max" from="-437870662#4" to="51268713#6"/>
    <trip id="veh247" type="veh_passenger" depart="259.35" departLane="best" departSpeed="max" from="374332385#0" to="50160154#10"/>
    <trip id="veh248" type="veh_passenger" depart="260.40" departLane="best" departSpeed="max" from="451928555#0" to="269542356"/>
    <trip id="veh249" type="veh_passenger" depart="261.45" departLane="best" departSpeed="max" from="49788394#0" to="824669534"/>
    <trip id="veh252" type="veh_passenger" depart="264.60" departLane="best" from="310620432#3" to="311319110#9"/>
    <trip id="veh253" type="veh_passenger" depart="265.65" departLane="best" departSpeed="max" from="248976980#0" to="-374332362#2"/>
    <trip id="veh255" type="veh_passenger" depart="267.75" departLane="best" departSpeed="max" from="-824669534" to="437870662#3"/>
    <trip id="veh256" type="veh_passenger" depart="268.80" departLane="best" departSpeed="max" from="248976980#0" to="506316032#0"/>
    <trip id="veh257" type="veh_passenger" depart="269.85" departLane="best" departSpeed="max" from="451928555#0" to="268564485#14"/>
    <trip id="veh259" type="veh_passenger" depart="271.95" departLane="best" departSpeed="max" from="374332362#0" to="406125538#10"/>
    <trip id="veh260" type="veh_passenger" depart="273.00" departLane="best" departSpeed="max" from="451928555#0" to="311346862#7"/>
    <trip id="veh261" type="veh_passenger" depart="274.05" departLane="best" departSpeed="max" from="374332362#0" to="437870662#3"/>
    <trip id="veh263" type="veh_passenger" depart="276.15" departLane="best" departSpeed="max" from="451928555#0" to="268564485#14"/>
    <trip id="veh264" type="veh_passenger" depart="277.20" departLane="best" departSpeed="max" from="374332385#0" to="269542356"/>
    <trip id="veh265" type="veh_passenger" depart="278.25" departLane="best" departSpeed="max" from="49788394#0" to="268564485#14"/>
    <trip id="veh266" type="veh_passenger" depart="279.30" departLane="best" departSpeed="max" from="451928555#0" to="268564485#14"/>
    <trip id="veh268" type="veh_passenger" depart="281.40" departLane="best" departSpeed="max" from="-824669534" to="-49788394#0"/>
    <trip id="veh269" type="veh_passenger" depart="282.45" departLane="best" departSpeed="max" from="374332385#0" to="406125538#8"/>
    <trip id="veh270" type="veh_passenger" depart="283.50" departLane="best" departSpeed="max" from="374332362#0" to="401376480#4"/>
    <trip id="veh272" type="veh_passenger" depart="285.60" departLane="best" departSpeed="max" from="248976980#0" to="-49788394#0"/>
    <trip id="veh273" type="veh_passenger" depart="286.65" departLane="best" from="-51268708#2" to="-374332362#2"/>
    <trip id="veh274" type="veh_passenger" depart="287.70" departLane="best" departSpeed="max" from="374332385#0" to="268564485#14"/>
    <trip id="veh276" type="veh_passenger" depart="289.80" departLane="best" departSpeed="max" from="451928555#0" to="-49788394#0"/>
    <trip id="veh279" type="veh_passenger" depart="292.95" departLane="best" from="311319110#3" to="269542356"/>
    <trip id="veh280" type="veh_passenger" depart="294.00" departLane="best" departSpeed="max" from="593840519#0" to="291325260#6"/>
    <trip id="veh281" type="veh_passenger" depart="295.05" departLane="best" departSpeed="max" from="506599420#0" to="268564485#3"/>
    <trip id="veh282" type="veh_passenger" depart="296.10" departLane="best" departSpeed="max" from="-311346862#7" to="-506599420#0"/>
    <trip id="veh283" type="veh_passenger" depart="297.15" departLane="best" departSpeed="max" from="374332385#0" to="268564485#14"/>
    <trip id="veh285" type="veh_passenger" depart="299.25" departLane="best" from="506316033#0" to="311319110#9"/>
    <trip id="veh287" type="veh_passenger" depart="301.35" departLane="best" departSpeed="max" from="264859962#0" to="50160155"/>
    <trip id="veh289" type="veh_passenger" depart="303.45" departLane="best" departSpeed="max" from="374332385#0" to="311319110#9"/>
    <trip id="veh291" type="veh_passenger" depart="305.55" departLane="best" departSpeed="max" from="-824669534" to="-593840519#3"/>
    <trip id="veh292" type="veh_passenger" depart="306.60" departLane="best" departSpeed="max" from="374332385#0" to="-506599420#0"/>
    <trip id="veh294" type="veh_passenger" depart="308.70" departLane="best" from="-311319108#4" to="291325260#6"/>
    <trip id="veh295" type="veh_passenger" depart="309.75" departLane="best" departSpeed="max" from="374332385#0" to="268564485#14"/>
    <trip id="veh296" type="veh_passenger" depart="310.80" departLane="best" departSpeed="max" from="451928555#0" to="291325260#6"/>
    <trip id="veh297" type="veh_passenger" depart="311.85" departLane="best" departSpeed="max" from="451928555#0" to="51268699#3"/>
    <trip id="veh298" type="veh_passenger" depart="312.90" departLane="best" departSpeed="max" from="506316039#0" to="311319110#9"/>
    <trip id="veh300" type="veh_passenger" depart="315.00" departLane="best" departSpeed="max" from="264859962#0" to="291325260#6"/>
    <trip id="veh301" type="veh_passenger" depart="316.05" departLane="best" departSpeed="max" from="374332385#0" to="506316032#0"/>
    <trip id="veh303" type="veh_passenger" depart="318.15" departLane="best" departSpeed="max" from="49788394#0" to="291325260#6"/>
    <trip id="veh304" type="veh_passenger" depart="319.20" departLane="best" departSpeed="max" from="248976980#0" to="-49788394#0"/>
    <trip id="veh305" type="veh_passenger" depart="320.25" departLane="best" departSpeed="max" from="451928555#0" to="374332387#6"/>
    <trip id="veh306" type="veh_passenger" depart="321.30" departLane="best" departSpeed="max" from="593840519#0" to="291325260#6"/>
    <trip id="veh307" type="veh_passenger" depart="322.35" departLane="best" departSpeed="max" from="-311319110#10" to="269542356"/>
    <trip id="veh308" type="veh_passenger" depart="323.40" departLane="best" departSpeed="max" from="248976980#0" to="248976980#10"/>
    <trip id="veh309" type="veh_passenger" depart="324.45" departLane="best" from="-406125538#1" to="51268714#2"/>
    <trip id="veh310" type="veh_passenger" depart="325.50" departLane="best" departSpeed="max" from="506599420#0" to="291325260#6"/>
    <trip id="veh311" type="veh_passenger" depart="326.55" departLane="best" departSpeed="max" from="593840519#0" to="824669534"/>
    <trip id="veh312" type="veh_passenger" depart="327.60" departLane="best" from="375408687#3" to="268564485#14"/>