<?xml version="1.0" encoding="UTF-8"?>

<!-- generated on 12/12/20 22:44:21 by Eclipse SUMO netconvert Version 1.7.0
<configuration xmlns:xsi="http://www.w3.org/2001/XMLSchema-instance" xsi:noNamespaceSchemaLocation="http://sumo.dlr.de/xsd/netconvertConfiguration.xsd">

    <input>
        <type-files value="D:\SUMO\data\typemap\osmNetconvert.typ.xml"/>
        <osm-files value="osm_bbox.osm.xml"/>
    </input>

    <output>
        <output-file value="osm.net.xml"/>
        <output.street-names value="true"/>
        <output.original-names value="true"/>
    </output>

    <projection>
        <proj.utm value="true"/>
    </projection>

    <processing>
        <geometry.remove value="true"/>
        <roundabouts.guess value="true"/>
    </processing>

    <tls_building>
        <tls.discard-simple value="true"/>
        <tls.join value="true"/>
        <tls.guess-signals value="true"/>
        <tls.default-type value="actuated"/>
    </tls_building>

    <ramp_guessing>
        <ramps.guess value="true"/>
    </ramp_guessing>

    <junctions>
        <junctions.join value="true"/>
        <junctions.corner-detail value="5"/>
    </junctions>

    <report>
        <verbose value="true"/>
        <aggregate-warnings value="5"/>
    </report>

</configuration>
-->

<net version="1.6" junctionCornerDetail="5" limitTurnSpeed="5.50" xmlns:xsi="http://www.w3.org/2001/XMLSchema-instance" xsi:noNamespaceSchemaLocation="http://sumo.dlr.de/xsd/net_file.xsd">

    <location netOffset="-352052.74,-2771445.57" convBoundary="0.00,0.00,1590.28,1207.28" origBoundary="121.513905,25.051545,121.603288,25.068950" projParameter="+proj=utm +zone=51 +ellps=WGS84 +datum=WGS84 +units=m +no_defs"/>

    <type id="highway.bridleway" priority="1" numLanes="1" speed="2.78" allow="pedestrian" oneway="1" width="2.00"/>
    <type id="highway.bus_guideway" priority="1" numLanes="1" speed="27.78" allow="bus" oneway="1"/>
    <type id="highway.cycleway" priority="1" numLanes="1" speed="8.33" allow="bicycle" oneway="0" width="1.00"/>
    <type id="highway.footway" priority="1" numLanes="1" speed="2.78" allow="pedestrian" oneway="1" width="2.00"/>
    <type id="highway.ford" priority="1" numLanes="1" speed="2.78" allow="army" oneway="0"/>
    <type id="highway.living_street" priority="2" numLanes="1" speed="2.78" disallow="tram rail_urban rail rail_electric rail_fast ship" oneway="0"/>
    <type id="highway.motorway" priority="14" numLanes="2" speed="39.44" allow="private emergency authority army vip passenger hov taxi bus coach delivery truck trailer motorcycle evehicle custom1 custom2" oneway="1"/>
    <type id="highway.motorway_link" priority="9" numLanes="1" speed="22.22" allow="private emergency authority army vip passenger hov taxi bus coach delivery truck trailer motorcycle evehicle custom1 custom2" oneway="1"/>
    <type id="highway.path" priority="1" numLanes="1" speed="2.78" allow="pedestrian bicycle" oneway="1" width="2.00"/>
    <type id="highway.pedestrian" priority="1" numLanes="1" speed="2.78" allow="pedestrian" oneway="1" width="2.00"/>
    <type id="highway.primary" priority="12" numLanes="2" speed="27.78" disallow="tram rail_urban rail rail_electric rail_fast ship" oneway="0"/>
    <type id="highway.primary_link" priority="7" numLanes="1" speed="22.22" disallow="tram rail_urban rail rail_electric rail_fast ship" oneway="0"/>
    <type id="highway.raceway" priority="15" numLanes="2" speed="83.33" allow="vip" oneway="0"/>
    <type id="highway.residential" priority="3" numLanes="1" speed="13.89" disallow="tram rail_urban rail rail_electric rail_fast ship" oneway="0"/>
    <type id="highway.secondary" priority="11" numLanes="1" speed="27.78" disallow="tram rail_urban rail rail_electric rail_fast ship" oneway="0"/>
    <type id="highway.secondary_link" priority="6" numLanes="1" speed="22.22" disallow="tram rail_urban rail rail_electric rail_fast ship" oneway="0"/>
    <type id="highway.service" priority="1" numLanes="1" speed="5.56" allow="pedestrian delivery bicycle" oneway="0"/>
    <type id="highway.stairs" priority="1" numLanes="1" speed="1.39" allow="pedestrian" oneway="1" width="2.00"/>
    <type id="highway.step" priority="1" numLanes="1" speed="1.39" allow="pedestrian" oneway="1" width="2.00"/>
    <type id="highway.steps" priority="1" numLanes="1" speed="1.39" allow="pedestrian" oneway="1" width="2.00"/>
    <type id="highway.tertiary" priority="10" numLanes="1" speed="22.22" disallow="tram rail_urban rail rail_electric rail_fast ship" oneway="0"/>
    <type id="highway.tertiary_link" priority="5" numLanes="1" speed="22.22" disallow="tram rail_urban rail rail_electric rail_fast ship" oneway="0"/>
    <type id="highway.track" priority="1" numLanes="1" speed="5.56" allow="pedestrian motorcycle moped bicycle" oneway="0"/>
    <type id="highway.trunk" priority="13" numLanes="2" speed="27.78" disallow="pedestrian bicycle tram rail_urban rail rail_electric rail_fast ship" oneway="0"/>
    <type id="highway.trunk_link" priority="8" numLanes="1" speed="22.22" disallow="pedestrian bicycle tram rail_urban rail rail_electric rail_fast ship" oneway="0"/>
    <type id="highway.unclassified" priority="4" numLanes="1" speed="13.89" disallow="tram rail_urban rail rail_electric rail_fast ship" oneway="0"/>
    <type id="highway.unsurfaced" priority="1" numLanes="1" speed="8.33" disallow="tram rail_urban rail rail_electric rail_fast ship" oneway="0"/>
    <type id="railway.highspeed" priority="21" numLanes="1" speed="69.44" allow="rail_fast" oneway="1"/>
    <type id="railway.light_rail" priority="19" numLanes="1" speed="27.78" allow="rail_urban" oneway="1"/>
    <type id="railway.preserved" priority="16" numLanes="1" speed="27.78" allow="rail" oneway="1"/>
    <type id="railway.rail" priority="20" numLanes="1" speed="44.44" allow="rail" oneway="1"/>
    <type id="railway.subway" priority="18" numLanes="1" speed="27.78" allow="rail_urban" oneway="1"/>
    <type id="railway.tram" priority="17" numLanes="1" speed="13.89" allow="tram" oneway="1"/>

    <edge id=":1681657460_0" function="internal">
        <lane id=":1681657460_0_0" index="0" allow="pedestrian delivery bicycle" speed="6.12" length="7.67" shape="1476.95,191.08 1478.25,191.48 1479.19,192.67 1479.78,194.63 1480.02,197.37"/>
    </edge>
    <edge id=":1681657460_1" function="internal">
        <lane id=":1681657460_1_0" index="0" allow="pedestrian delivery bicycle" speed="3.65" length="4.67" shape="1476.95,191.08 1478.14,191.89 1478.53,192.70 1478.12,193.49 1476.91,194.28"/>
    </edge>
    <edge id=":1966677175_0" function="internal">
        <lane id=":1966677175_0_0" index="0" disallow="tram rail_urban rail rail_electric rail_fast ship" speed="6.50" length="9.03" shape="1107.79,609.99 1105.35,610.41 1103.63,611.50 1102.63,613.28 1102.35,615.74"/>
    </edge>
    <edge id=":1966677175_1" function="internal">
        <lane id=":1966677175_1_0" index="0" disallow="tram rail_urban rail rail_electric rail_fast ship" speed="13.89" length="11.20" shape="1102.04,604.54 1102.35,615.74"/>
    </edge>
    <edge id=":1966743231_0" function="internal">
        <lane id=":1966743231_0_0" index="0" disallow="tram rail_urban rail rail_electric rail_fast ship" speed="13.89" length="5.00" shape="1161.88,537.52 1161.78,532.52"/>
    </edge>
    <edge id=":1966743231_1" function="internal">
        <lane id=":1966743231_1_0" index="0" allow="pedestrian bicycle" speed="4.65" length="4.54" shape="1164.94,534.94 1163.58,534.83 1162.59,534.39 1161.99,533.62 1161.78,532.52"/>
    </edge>
    <edge id=":1966743236_0" function="internal">
        <lane id=":1966743236_0_0" index="0" allow="pedestrian bicycle" speed="4.17" length="4.54" width="2.00" shape="1254.05,551.79 1255.14,551.54 1255.89,550.91 1256.29,549.92 1256.36,548.55"/>
    </edge>
    <edge id=":1966743236_1" function="internal">
        <lane id=":1966743236_1_0" index="0" allow="pedestrian delivery bicycle" speed="5.56" length="4.97" shape="1254.05,551.79 1259.01,551.57"/>
    </edge>
    <edge id=":2628346479_0" function="internal">
        <lane id=":2628346479_0_0" index="0" disallow="tram rail_urban rail rail_electric rail_fast ship" speed="6.53" length="9.01" shape="1486.63,254.93 1484.20,255.36 1482.48,256.45 1481.47,258.23 1481.17,260.67"/>
    </edge>
    <edge id=":2628346479_1" function="internal">
        <lane id=":2628346479_1_0" index="0" disallow="tram rail_urban rail rail_electric rail_fast ship" speed="13.89" length="11.13" shape="1486.63,254.93 1475.51,255.27"/>
    </edge>
    <edge id=":2628346479_2" function="internal">
        <lane id=":2628346479_2_0" index="0" disallow="tram rail_urban rail rail_electric rail_fast ship" speed="13.89" length="11.13" shape="1480.97,249.54 1481.17,260.67"/>
    </edge>
    <edge id=":2628346479_3" function="internal">
        <lane id=":2628346479_3_0" index="0" disallow="tram rail_urban rail rail_electric rail_fast ship" speed="6.53" length="4.26" shape="1480.97,249.54 1480.66,251.99 1479.78,253.54"/>
    </edge>
    <edge id=":2628346479_4" function="internal">
        <lane id=":2628346479_4_0" index="0" disallow="tram rail_urban rail rail_electric rail_fast ship" speed="6.53" length="4.75" shape="1479.78,253.54 1479.65,253.76 1477.93,254.85 1475.51,255.27"/>
    </edge>
    <edge id=":3121703487_0" function="internal">
        <lane id=":3121703487_0_0" index="0" disallow="tram rail_urban rail rail_electric rail_fast ship" speed="13.89" length="6.20" shape="1542.98,812.55 1538.33,816.64"/>
    </edge>
    <edge id=":3121703487_1" function="internal">
        <lane id=":3121703487_1_0" index="0" allow="pedestrian delivery bicycle" speed="5.04" length="5.00" shape="1538.60,812.26 1539.36,813.41 1539.56,814.52 1539.22,815.59 1538.33,816.64"/>
    </edge>
    <edge id=":3121703489_0" function="internal">
        <lane id=":3121703489_0_0" index="0" allow="pedestrian delivery bicycle" speed="5.56" length="6.18" shape="1492.48,760.14 1493.45,760.74 1494.66,762.13 1495.80,763.66 1496.58,764.69"/>
    </edge>
    <edge id=":3121703489_1" function="internal">
        <lane id=":3121703489_1_0" index="0" allow="pedestrian delivery bicycle" speed="5.06" length="5.03" shape="1492.18,764.44 1493.34,763.68 1494.46,763.46 1495.54,763.80 1496.58,764.69"/>
    </edge>
    <edge id=":3169486662_0" function="internal">
        <lane id=":3169486662_0_0" index="0" allow="pedestrian delivery bicycle" speed="3.65" length="4.67" shape="987.36,137.46 986.13,136.71 985.69,135.93 986.05,135.12 987.22,134.26"/>
    </edge>
    <edge id=":3169996421_0" function="internal">
        <lane id=":3169996421_0_0" index="0" allow="pedestrian delivery bicycle" speed="5.56" length="5.00" shape="498.99,259.87 494.80,257.13"/>
    </edge>
    <edge id=":3169996421_1" function="internal">
        <lane id=":3169996421_1_0" index="0" allow="pedestrian delivery bicycle" speed="3.65" length="4.67" shape="498.99,259.87 498.42,258.54 498.52,257.65 499.30,257.20 500.74,257.19"/>
    </edge>
    <edge id=":3169996421_2" function="internal">
        <lane id=":3169996421_2_0" index="0" allow="pedestrian delivery bicycle" speed="5.56" length="5.00" shape="496.55,254.45 500.74,257.19"/>
    </edge>
    <edge id=":3169996421_3" function="internal">
        <lane id=":3169996421_3_0" index="0" allow="pedestrian delivery bicycle" speed="3.65" length="4.67" shape="496.55,254.45 497.12,255.78 497.01,256.66 496.24,257.11 494.80,257.13"/>
    </edge>
    <edge id=":3182497058_0" function="internal">
        <lane id=":3182497058_0_0" index="0" allow="pedestrian delivery bicycle" speed="3.65" length="4.67" shape="1148.90,86.89 1150.34,86.85 1151.13,87.28 1151.26,88.16 1150.74,89.51"/>
    </edge>
    <edge id=":3186062717_0" function="internal">
        <lane id=":3186062717_0_0" index="0" allow="pedestrian delivery bicycle" speed="3.65" length="4.67" shape="909.34,822.33 908.55,823.53 907.75,823.93 906.95,823.54 906.14,822.34"/>
    </edge>
    <edge id=":3187192138_0" function="internal">
        <lane id=":3187192138_0_0" index="0" allow="pedestrian delivery bicycle" speed="3.65" length="4.67" shape="771.74,437.77 772.40,436.49 773.16,436.01 774.00,436.32 774.92,437.43"/>
    </edge>
    <edge id=":3187192142_0" function="internal">
        <lane id=":3187192142_0_0" index="0" allow="pedestrian delivery bicycle" speed="5.03" length="5.01" shape="868.19,739.45 867.98,738.09 867.39,737.13 866.41,736.57 865.04,736.40"/>
    </edge>
    <edge id=":3187192142_1" function="internal">
        <lane id=":3187192142_1_0" index="0" allow="pedestrian delivery bicycle" speed="5.56" length="9.40" shape="868.19,739.45 868.10,730.05"/>
    </edge>
    <edge id=":3187192142_2" function="internal">
        <lane id=":3187192142_2_0" index="0" allow="pedestrian delivery bicycle" speed="5.08" length="5.05" shape="864.97,733.20 866.35,732.98 867.33,732.38 867.91,731.41 868.10,730.05"/>
    </edge>
    <edge id=":3187192142_3" function="internal">
        <lane id=":3187192142_3_0" index="0" allow="pedestrian delivery bicycle" speed="3.65" length="4.67" shape="864.97,733.20 866.19,733.98 866.61,734.77 866.22,735.58 865.04,736.40"/>
    </edge>
    <edge id=":3187192144_0" function="internal">
        <lane id=":3187192144_0_0" index="0" allow="pedestrian bicycle" speed="4.17" length="3.50" width="2.00" shape="831.30,747.71 831.15,748.67 830.66,749.28 830.17,749.88 830.03,750.84"/>
    </edge>
    <edge id=":3187192144_1" function="internal">
        <lane id=":3187192144_1_0" index="0" allow="pedestrian delivery bicycle" speed="3.65" length="4.67" shape="831.30,747.71 830.63,748.98 829.87,749.46 829.04,749.15 828.12,748.03"/>
    </edge>
    <edge id=":3187192145_0" function="internal">
        <lane id=":3187192145_0_0" index="0" allow="pedestrian bicycle" speed="4.17" length="5.57" shape="834.62,769.15 833.03,769.48 832.02,770.07 831.00,770.65 829.42,770.93"/>
    </edge>
    <edge id=":3187192145_1" function="internal">
        <lane id=":3187192145_1_0" index="0" allow="pedestrian bicycle" speed="4.17" length="7.59" shape="831.63,764.50 831.77,767.29 831.45,769.29 830.66,770.51 829.42,770.93"/>
    </edge>
    <edge id=":3187192145_2" function="internal">
        <lane id=":3187192145_2_0" index="0" allow="pedestrian delivery bicycle" speed="3.65" length="1.92" shape="829.34,767.74 830.56,768.51 830.79,768.93"/>
    </edge>
    <edge id=":3187192145_3" function="internal">
        <lane id=":3187192145_3_0" index="0" allow="pedestrian delivery bicycle" speed="3.65" length="2.75" shape="830.79,768.93 830.98,769.30 830.60,770.11 829.42,770.93"/>
    </edge>
    <edge id=":3187192146_0" function="internal">
        <lane id=":3187192146_0_0" index="0" allow="pedestrian delivery bicycle" speed="5.03" length="5.01" shape="868.55,772.97 868.33,771.61 867.73,770.65 866.75,770.09 865.38,769.93"/>
    </edge>
    <edge id=":3187192146_1" function="internal">
        <lane id=":3187192146_1_0" index="0" allow="pedestrian delivery bicycle" speed="5.56" length="9.39" shape="868.55,772.97 868.43,763.57"/>
    </edge>
    <edge id=":3187192146_2" function="internal">
        <lane id=":3187192146_2_0" index="0" allow="pedestrian delivery bicycle" speed="5.09" length="5.05" shape="865.30,766.73 866.68,766.50 867.66,765.90 868.25,764.92 868.43,763.57"/>
    </edge>
    <edge id=":3187192146_3" function="internal">
        <lane id=":3187192146_3_0" index="0" allow="pedestrian delivery bicycle" speed="3.65" length="4.67" shape="865.30,766.73 866.52,767.50 866.94,768.29 866.56,769.10 865.38,769.93"/>
    </edge>
    <edge id=":3190313926_0" function="internal">
        <lane id=":3190313926_0_0" index="0" disallow="tram rail_urban rail rail_electric rail_fast ship" speed="22.22" length="9.40" shape="718.66,196.07 718.44,186.68"/>
    </edge>
    <edge id=":3190313926_1" function="internal">
        <lane id=":3190313926_1_0" index="0" allow="pedestrian delivery bicycle" speed="6.89" length="5.06" shape="718.66,196.07 718.99,193.33 720.13,191.34"/>
    </edge>
    <edge id=":3190313926_2" function="internal">
        <lane id=":3190313926_2_0" index="0" disallow="tram rail_urban rail rail_electric rail_fast ship" speed="3.65" length="2.34" shape="718.66,196.07 719.43,194.86 720.22,194.44"/>
    </edge>
    <edge id=":3190313926_9" function="internal">
        <lane id=":3190313926_9_0" index="0" allow="pedestrian delivery bicycle" speed="6.89" length="5.10" shape="720.13,191.34 722.07,190.10 724.83,189.61"/>
    </edge>
    <edge id=":3190313926_10" function="internal">
        <lane id=":3190313926_10_0" index="0" disallow="tram rail_urban rail rail_electric rail_fast ship" speed="3.65" length="2.34" shape="720.22,194.44 721.03,194.82 721.86,196.00"/>
    </edge>
    <edge id=":3190313926_3" function="internal">
        <lane id=":3190313926_3_0" index="0" allow="pedestrian delivery bicycle" speed="5.08" length="5.05" shape="724.94,192.81 723.57,193.05 722.59,193.66 722.03,194.64 721.86,196.00"/>
    </edge>
    <edge id=":3190313926_4" function="internal">
        <lane id=":3190313926_4_0" index="0" allow="pedestrian delivery bicycle" speed="6.85" length="10.22" shape="724.94,192.81 722.15,192.51 720.14,191.39 718.90,189.45 718.44,186.68"/>
    </edge>
    <edge id=":3190313926_5" function="internal">
        <lane id=":3190313926_5_0" index="0" allow="pedestrian delivery bicycle" speed="3.65" length="4.67" shape="724.94,192.81 723.71,192.05 723.29,191.26 723.66,190.45 724.83,189.61"/>
    </edge>
    <edge id=":3190313926_6" function="internal">
        <lane id=":3190313926_6_0" index="0" allow="pedestrian delivery bicycle" speed="5.03" length="5.01" shape="721.63,186.60 721.86,187.96 722.47,188.91 723.46,189.46 724.83,189.61"/>
    </edge>
    <edge id=":3190313926_7" function="internal">
        <lane id=":3190313926_7_0" index="0" disallow="tram rail_urban rail rail_electric rail_fast ship" speed="22.22" length="9.40" shape="721.63,186.60 721.86,196.00"/>
    </edge>
    <edge id=":3190313926_8" function="internal">
        <lane id=":3190313926_8_0" index="0" disallow="tram rail_urban rail rail_electric rail_fast ship" speed="3.65" length="2.34" shape="721.63,186.60 720.86,187.82 720.07,188.24"/>
    </edge>
    <edge id=":3190313926_11" function="internal">
        <lane id=":3190313926_11_0" index="0" disallow="tram rail_urban rail rail_electric rail_fast ship" speed="3.65" length="2.34" shape="720.07,188.24 719.26,187.86 718.44,186.68"/>
    </edge>
    <edge id=":3190313927_0" function="internal">
        <lane id=":3190313927_0_0" index="0" allow="pedestrian delivery bicycle" speed="5.18" length="5.12" shape="847.66,191.43 847.34,190.12 846.65,189.21 845.59,188.68 844.15,188.54"/>
    </edge>
    <edge id=":3190313927_1" function="internal">
        <lane id=":3190313927_1_0" index="0" allow="pedestrian delivery bicycle" speed="5.56" length="9.34" shape="847.66,191.43 847.00,182.11"/>
    </edge>
    <edge id=":3190313927_2" function="internal">
        <lane id=":3190313927_2_0" index="0" allow="pedestrian delivery bicycle" speed="3.65" length="4.67" shape="847.66,191.43 848.35,190.16 849.11,189.69 849.95,190.02 850.85,191.14"/>
    </edge>
    <edge id=":3190313927_3" function="internal">
        <lane id=":3190313927_3_0" index="0" allow="pedestrian delivery bicycle" speed="5.56" length="9.23" shape="850.19,181.94 850.85,191.14"/>
    </edge>
    <edge id=":3190313927_4" function="internal">
        <lane id=":3190313927_4_0" index="0" allow="pedestrian delivery bicycle" speed="5.56" length="10.25" shape="850.19,181.94 849.94,184.74 848.85,186.78 846.92,188.05 844.15,188.54"/>
    </edge>
    <edge id=":3190313927_5" function="internal">
        <lane id=":3190313927_5_0" index="0" allow="pedestrian delivery bicycle" speed="3.65" length="4.67" shape="850.19,181.94 849.46,183.18 848.68,183.62 847.86,183.27 847.00,182.11"/>
    </edge>
    <edge id=":3190313927_6" function="internal">
        <lane id=":3190313927_6_0" index="0" allow="pedestrian delivery bicycle" speed="5.02" length="5.02" shape="844.04,185.35 845.39,185.10 846.34,184.48 846.87,183.48 847.00,182.11"/>
    </edge>
    <edge id=":3190313927_7" function="internal">
        <lane id=":3190313927_7_0" index="0" allow="pedestrian delivery bicycle" speed="5.56" length="10.08" shape="844.04,185.35 846.81,185.62 848.87,186.68 850.22,188.52 850.85,191.14"/>
    </edge>
    <edge id=":3190313927_8" function="internal">
        <lane id=":3190313927_8_0" index="0" allow="pedestrian delivery bicycle" speed="3.65" length="4.67" shape="844.04,185.35 845.26,186.10 845.69,186.89 845.32,187.70 844.15,188.54"/>
    </edge>
    <edge id=":3190313929_0" function="internal">
        <lane id=":3190313929_0_0" index="0" allow="pedestrian delivery bicycle" speed="5.14" length="5.08" shape="845.33,160.09 845.01,158.78 844.33,157.87 843.28,157.35 841.87,157.24"/>
    </edge>
    <edge id=":3190313929_1" function="internal">
        <lane id=":3190313929_1_0" index="0" allow="pedestrian delivery bicycle" speed="5.56" length="9.35" shape="845.33,160.09 844.62,150.77"/>
    </edge>
    <edge id=":3190313929_2" function="internal">
        <lane id=":3190313929_2_0" index="0" allow="pedestrian delivery bicycle" speed="3.65" length="4.67" shape="845.33,160.09 846.02,158.82 846.78,158.35 847.61,158.67 848.52,159.79"/>
    </edge>
    <edge id=":3190313929_3" function="internal">
        <lane id=":3190313929_3_0" index="0" allow="pedestrian delivery bicycle" speed="5.56" length="9.25" shape="847.81,150.57 848.52,159.79"/>
    </edge>
    <edge id=":3190313929_4" function="internal">
        <lane id=":3190313929_4_0" index="0" allow="pedestrian delivery bicycle" speed="5.56" length="10.20" shape="847.81,150.57 847.58,153.36 846.52,155.40 844.61,156.69 841.87,157.24"/>
    </edge>
    <edge id=":3190313929_5" function="internal">
        <lane id=":3190313929_5_0" index="0" allow="pedestrian delivery bicycle" speed="3.65" length="4.67" shape="847.81,150.57 847.08,151.82 846.31,152.27 845.49,151.92 844.62,150.77"/>
    </edge>
    <edge id=":3190313929_6" function="internal">
        <lane id=":3190313929_6_0" index="0" allow="pedestrian delivery bicycle" speed="5.03" length="5.01" shape="841.70,154.04 843.05,153.77 843.98,153.14 844.50,152.14 844.62,150.77"/>
    </edge>
    <edge id=":3190313929_7" function="internal">
        <lane id=":3190313929_7_0" index="0" allow="pedestrian delivery bicycle" speed="5.56" length="10.09" shape="841.70,154.04 844.47,154.28 846.53,155.31 847.88,157.15 848.52,159.79"/>
    </edge>
    <edge id=":3190313929_8" function="internal">
        <lane id=":3190313929_8_0" index="0" allow="pedestrian delivery bicycle" speed="3.65" length="4.67" shape="841.70,154.04 842.94,154.78 843.38,155.55 843.02,156.37 841.87,157.24"/>
    </edge>
    <edge id=":3190313931_0" function="internal">
        <lane id=":3190313931_0_0" index="0" allow="pedestrian delivery bicycle" speed="5.10" length="5.05" shape="732.62,172.75 732.90,174.12 733.53,175.08 734.52,175.64 735.87,175.79"/>
    </edge>
    <edge id=":3190313931_1" function="internal">
        <lane id=":3190313931_1_0" index="0" allow="pedestrian delivery bicycle" speed="3.65" length="4.67" shape="732.62,172.75 731.90,173.99 731.12,174.44 730.30,174.09 729.43,172.94"/>
    </edge>
    <edge id=":3190313931_2" function="internal">
        <lane id=":3190313931_2_0" index="0" allow="pedestrian delivery bicycle" speed="5.04" length="5.00" shape="726.52,176.22 727.86,175.95 728.79,175.31 729.32,174.31 729.43,172.94"/>
    </edge>
    <edge id=":3190313931_3" function="internal">
        <lane id=":3190313931_3_0" index="0" allow="pedestrian delivery bicycle" speed="5.56" length="9.36" shape="726.52,176.22 735.87,175.79"/>
    </edge>
    <edge id=":3291854569_0" function="internal">
        <lane id=":3291854569_0_0" index="0" allow="pedestrian bicycle" speed="4.17" length="4.55" width="2.00" shape="834.31,139.39 835.41,139.16 836.17,138.55 836.59,137.56 836.67,136.19"/>
    </edge>
    <edge id=":3291854569_1" function="internal">
        <lane id=":3291854569_1_0" index="0" allow="pedestrian delivery bicycle" speed="5.56" length="5.07" shape="834.31,139.39 839.37,139.11"/>
    </edge>
    <edge id=":3640189693_0" function="internal">
        <lane id=":3640189693_0_0" index="0" allow="pedestrian delivery bicycle" speed="5.02" length="5.02" shape="620.72,151.20 620.49,149.84 619.88,148.89 618.89,148.34 617.52,148.20"/>
    </edge>
    <edge id=":3640189693_1" function="internal">
        <lane id=":3640189693_1_0" index="0" allow="pedestrian delivery bicycle" speed="5.56" length="6.17" shape="623.69,147.91 617.52,148.20"/>
    </edge>
    <edge id=":3640189793_0" function="internal">
        <lane id=":3640189793_0_0" index="0" allow="pedestrian delivery bicycle" speed="5.56" length="6.36" shape="625.41,212.85 619.05,213.05"/>
    </edge>
    <edge id=":3640189793_1" function="internal">
        <lane id=":3640189793_1_0" index="0" allow="pedestrian delivery bicycle" speed="5.56" length="7.83" shape="625.41,212.85 623.99,212.52 622.96,211.38 622.31,209.43 622.04,206.67"/>
    </edge>
    <edge id=":3640189793_2" function="internal">
        <lane id=":3640189793_2_0" index="0" allow="pedestrian delivery bicycle" speed="3.65" length="4.67" shape="625.41,212.85 624.17,212.11 623.73,211.33 624.09,210.51 625.25,209.65"/>
    </edge>
    <edge id=":3640189793_3" function="internal">
        <lane id=":3640189793_3_0" index="0" allow="pedestrian delivery bicycle" speed="5.04" length="5.03" shape="619.00,209.85 620.36,209.64 621.32,209.03 621.88,208.04 622.04,206.67"/>
    </edge>
    <edge id=":3640189793_4" function="internal">
        <lane id=":3640189793_4_0" index="0" allow="pedestrian delivery bicycle" speed="5.56" length="6.25" shape="619.00,209.85 625.25,209.65"/>
    </edge>
    <edge id=":3640189793_5" function="internal">
        <lane id=":3640189793_5_0" index="0" allow="pedestrian delivery bicycle" speed="3.65" length="4.67" shape="619.00,209.85 620.21,210.64 620.62,211.43 620.24,212.24 619.05,213.05"/>
    </edge>
    <edge id=":3776650664_0" function="internal">
        <lane id=":3776650664_0_0" index="0" allow="pedestrian delivery bicycle" speed="5.56" length="7.76" shape="1486.81,383.84 1485.44,383.48 1484.44,382.32 1483.82,380.37 1483.57,377.61"/>
    </edge>
    <edge id=":3776650664_1" function="internal">
        <lane id=":3776650664_1_0" index="0" allow="pedestrian delivery bicycle" speed="3.65" length="4.67" shape="1486.81,383.84 1485.59,383.07 1485.17,382.28 1485.55,381.47 1486.73,380.64"/>
    </edge>
    <edge id=":3776650664_2" function="internal">
        <lane id=":3776650664_2_0" index="0" allow="pedestrian delivery bicycle" speed="5.56" length="6.36" shape="1480.61,382.47 1481.94,382.11 1482.88,381.18 1483.42,379.68 1483.57,377.61"/>
    </edge>
    <edge id=":3776650664_3" function="internal">
        <lane id=":3776650664_3_0" index="0" allow="pedestrian delivery bicycle" speed="5.56" length="6.45" shape="1480.61,382.47 1482.47,382.13 1483.67,381.52 1484.88,380.94 1486.73,380.64"/>
    </edge>
    <edge id=":4121544856_0" function="internal">
        <lane id=":4121544856_0_0" index="0" allow="pedestrian delivery bicycle" speed="5.56" length="5.17" shape="1290.49,144.84 1285.34,145.24"/>
    </edge>
    <edge id=":4401545674_0" function="internal">
        <lane id=":4401545674_0_0" index="0" allow="pedestrian delivery bicycle" speed="5.08" length="5.08" shape="1507.44,386.25 1507.18,384.87 1506.56,383.89 1505.57,383.33 1504.21,383.19"/>
    </edge>
    <edge id=":4401545674_1" function="internal">
        <lane id=":4401545674_1_0" index="0" allow="pedestrian delivery bicycle" speed="5.56" length="10.29" shape="1507.44,386.25 1507.72,383.44 1508.84,381.41 1510.79,380.17 1513.59,379.72"/>
    </edge>
    <edge id=":4401545674_2" function="internal">
        <lane id=":4401545674_2_0" index="0" allow="pedestrian delivery bicycle" speed="3.65" length="4.67" shape="1507.44,386.25 1508.19,385.02 1508.97,384.59 1509.78,384.95 1510.64,386.12"/>
    </edge>
    <edge id=":4401545674_3" function="internal">
        <lane id=":4401545674_3_0" index="0" allow="pedestrian delivery bicycle" speed="5.01" length="5.03" shape="1513.64,382.92 1512.27,383.14 1511.32,383.75 1510.77,384.74 1510.64,386.12"/>
    </edge>
    <edge id=":4401545674_4" function="internal">
        <lane id=":4401545674_4_0" index="0" allow="pedestrian delivery bicycle" speed="5.56" length="9.44" shape="1513.64,382.92 1504.21,383.19"/>
    </edge>
    <edge id=":4401545674_5" function="internal">
        <lane id=":4401545674_5_0" index="0" allow="pedestrian delivery bicycle" speed="3.65" length="4.67" shape="1513.64,382.92 1512.43,382.14 1512.01,381.35 1512.40,380.54 1513.59,379.72"/>
    </edge>
    <edge id=":4401545674_6" function="internal">
        <lane id=":4401545674_6_0" index="0" allow="pedestrian delivery bicycle" speed="5.56" length="9.51" shape="1504.08,379.99 1513.59,379.72"/>
    </edge>
    <edge id=":4401545674_7" function="internal">
        <lane id=":4401545674_7_0" index="0" allow="pedestrian delivery bicycle" speed="5.56" length="10.22" shape="1504.08,379.99 1506.84,380.28 1508.86,381.40 1510.12,383.34 1510.64,386.12"/>
    </edge>
    <edge id=":4401545674_8" function="internal">
        <lane id=":4401545674_8_0" index="0" allow="pedestrian delivery bicycle" speed="3.65" length="4.67" shape="1504.08,379.99 1505.31,380.74 1505.74,381.53 1505.37,382.34 1504.21,383.19"/>
    </edge>
    <edge id=":4401545675_0" function="internal">
        <lane id=":4401545675_0_0" index="0" allow="pedestrian delivery bicycle" speed="3.65" length="4.67" shape="1555.58,379.19 1556.77,380.00 1557.17,380.80 1556.76,381.60 1555.55,382.39"/>
    </edge>
    <edge id=":4408358043_0" function="internal">