<?xml version="1.0" encoding="UTF-8"?>

<!-- generated on 11/10/20 21:54:05 by Eclipse SUMO polyconvert Version 1.7.0
<configuration xmlns:xsi="http://www.w3.org/2001/XMLSchema-instance" xsi:noNamespaceSchemaLocation="http://sumo.dlr.de/xsd/polyconvertConfiguration.xsd">

    <input>
        <net-file value="osm.net.xml"/>
        <osm-files value="osm_bbox.osm.xml"/>
        <osm.keep-full-type value="true"/>
        <type-file value="D:\SUMO\data\typemap\osmPolyconvert.typ.xml"/>
    </input>

    <output>
        <output-file value="osm.poly.xml"/>
    </output>

    <processing>
        <poi-layer-offset value="5"/>
    </processing>

    <report>
        <verbose value="true"/>
    </report>

</configuration>
-->

<additional xmlns:xsi="http://www.w3.org/2001/XMLSchema-instance" xsi:noNamespaceSchemaLocation="http://sumo.dlr.de/xsd/additional_file.xsd">
    <location netOffset="-344431.91,-2770256.21" convBoundary="-6056.77,-4774.94,16710.87,15334.60" origBoundary="121.396142,24.998027,121.623376,25.177734" projParameter="+proj=utm +zone=51 +ellps=WGS84 +datum=WGS84 +units=m +no_defs"/>

    <poly id="103535923" type="building.office" color="255,230,230" fill="1" layer="-1.00" shape="9411.458727,1744.000498 9402.353033,1744.485724 9348.353582,1703.062242 9326.414001,1686.616172 9257.428672,1686.381037 9259.653109,1799.725234 9373.745175,1795.910293 9400.656323,1768.816820 9411.568301,1768.356547 9411.458727,1744.000498"/>
    <poly id="105778448" type="amenity.school" color="237,199,199" fill="1" layer="-1.00" shape="5522.135378,2514.335263 5521.995440,2521.791423 5542.936552,2522.336434 5543.046579,2513.994468 5553.331731,2514.379792 5563.314363,2514.779528 5563.240192,2513.539753 5616.406529,2515.026476 5621.035078,2520.314558 5620.646759,2539.138135 5622.786871,2539.247528 5623.203853,2562.492932 5620.772655,2562.519660 5621.245513,2589.929289 5623.919182,2589.933124 5625.082955,2633.385294 5625.205666,2637.205405 5626.728937,2667.472353 5585.415900,2673.143739 5498.377294,2669.482202 5499.589444,2632.937891 5500.646966,2582.338946 5502.644241,2513.530643 5522.135378,2514.335263"/>
    <poly id="106270574" type="amenity.school" color="237,199,199" fill="1" layer="-1.00" shape="6869.720392,2620.113007 6870.254978,2519.232256 6870.054896,2463.862341 6912.414344,2463.400604 6925.617705,2463.090559 6967.396582,2462.125795 7000.666749,2461.763362 7002.165167,2505.776638 7004.815753,2605.548193 7005.434928,2624.416026 6869.156145,2629.434610 6869.720392,2620.113007"/>
    <poly id="106270575" type="amenity.school" color="237,199,199" fill="1" layer="-1.00" shape="6864.423296,2308.219500 7020.962932,2305.827098 7021.304495,2398.335353 7000.725324,2399.523155 7001.106406,2412.279278 6865.702323,2415.360905 6865.184226,2365.986921 6864.423296,2308.219500"/>
    <poly id="106335689" type="leisure.park" color="207,245,201" fill="1" layer="-2.00" shape="6830.711505,1466.663623 6829.286999,1301.726107 6839.765182,1291.975242 6978.483632,1290.164991 6974.233007,1360.337314 7015.021649,1362.640210 7013.912089,1455.352459 6830.711505,1466.663623"/>
    <poly id="111318113" type="natural.water" color="181,209,209" fill="0" layer="-4.00" shape="787.150183,7768.088038 783.167335,7760.191113 787.153794,7744.460723 791.665749,7732.368697 790.915501,7716.060786 796.275028,7694.244583 800.855605,7667.784896 808.396818,7644.470651 819.485237,7632.425711 845.200877,7599.345411 866.728474,7581.122728 891.418770,7560.748434 930.799748,7517.798503 958.170594,7480.335308 999.593654,7451.086816 1105.178510,7386.782629 1212.854449,7341.364034 1344.159890,7282.375156 1606.751574,7211.467666 1818.813957,7134.235048 1949.399871,7096.018631 2110.975721,7054.662771 2276.543734,7004.103320 2425.309613,6945.493719 2620.247334,6856.027408 2817.365186,6745.803645 3076.302980,6607.475190 3282.008425,6471.741053 3380.361459,6402.286163 3586.243752,6231.253132 3686.420808,6130.610079 3767.637881,6034.632065 3768.573694,6033.525028 3938.221622,5870.400926 4514.296665,5328.913247 4646.594050,5158.071917 4937.447488,4727.024208 5043.240699,4232.396906 5066.720829,4100.412929 5066.482190,3987.432754 5095.108733,3929.528727 5094.497326,3874.140685 5123.091738,3815.118351 5158.475415,3581.407516 5180.849863,3473.328692 5185.990498,3374.135243 5185.637238,3233.254213 5168.809343,3109.779217 5159.677545,2993.485687 5132.666765,2704.215863 5119.263115,2505.259616 5097.793958,2369.972755 5086.994987,2095.289548 5066.801063,1994.260043 5053.631049,1920.822706"/>
    <poly id="134900817" type="leisure.park" color="207,245,201" fill="1" layer="-2.00" shape="8041.473718,2577.425916 8040.049296,2604.302027 8074.391171,2604.196436 8089.514156,2604.154742 8135.978219,2604.538519 8269.088529,2602.291679 8394.078559,2598.306129 8391.598108,2507.748781 8389.348131,2405.824405 8034.862659,2412.079819 8041.473718,2577.425916"/>
    <poly id="134901832" type="amenity.school" color="237,199,199" fill="1" layer="-1.00" shape="8555.415874,2588.391613 8551.082053,2504.566669 8409.564004,2508.429977 8411.374827,2592.104925 8523.158450,2589.060575 8555.415874,2588.391613"/>
    <poly id="134912228" type="amenity.school" color="237,199,199" fill="1" layer="-1.00" shape="8567.844676,2500.320901 8570.730261,2599.557861 8571.852037,2651.217890 8572.754823,2690.984064 8680.242117,2688.164485 8678.171195,2595.177015 8676.822240,2498.028075 8567.844676,2500.320901"/>
    <poly id="134913082" type="landuse.religious" color="194,194,130" fill="1" layer="-3.00" shape="7641.600349,2512.871708 7686.495557,2511.819957 7721.597078,2510.099151 7719.839884,2469.921243 7718.319722,2438.579888 7709.966067,2430.219002 7647.462985,2432.945867 7639.911669,2441.822579 7641.600349,2512.871708"/>
    <poly id="134969647" type="amenity.townhall" color="237,199,199" fill="1" layer="-1.00" shape="7648.026403,2649.553690 7647.082216,2593.195122 7674.438814,2592.743377 7675.382887,2649.101942 7648.026403,2649.553690"/>
    <poly id="134969647#1" type="building.office" color="255,230,230" fill="1" layer="-1.00" shape="7648.026403,2649.553690 7647.082216,2593.195122 7674.438814,2592.743377 7675.382887,2649.101942 7648.026403,2649.553690"/>
    <poly id="134969906" type="building.commercial" color="255,230,230" fill="1" layer="-1.00" shape="7560.299130,2452.145664 7559.652625,2432.547097 7587.763142,2430.879669 7596.554018,2438.615452 7595.833510,2450.320156 7592.384746,2450.479414 7572.086677,2451.530388 7560.299130,2452.145664"/>
    <poly id="135029953" type="amenity.school" color="237,199,199" fill="1" layer="-1.00" shape="8805.628178,2281.324650 8802.822818,2200.629037 8803.046570,2184.853643 8861.205617,2183.386212 8963.514879,2180.934941 8964.944717,2277.362906 8805.628178,2281.324650"/>
    <poly id="135031294" type="building.retail" color="255,230,230" fill="1" layer="-1.00" shape="7966.692641,3002.390669 7965.595588,2991.447798 7967.263138,2986.124063 7967.005798,2960.484549 7974.060389,2959.787904 7972.891548,2947.804611 7966.422653,2941.095756 7963.275982,2931.869788 7963.031673,2927.940244 7962.442215,2918.221381 7972.883518,2910.709209 7978.178254,2907.738763 7985.584721,2907.857985 7993.104150,2910.025157 7999.053843,2913.505280 8003.391053,2918.077282 8072.129374,2915.594619 8074.240617,2909.313515 8079.610735,2903.982982 8086.619046,2901.802637 8095.545296,2900.653829 8102.187591,2901.944419 8106.341091,2904.458195 8110.523690,2909.663267 8112.764239,2920.937151 8110.069310,2928.287911 8110.799897,2941.738055 8113.801091,2997.232500 8105.203960,2998.023290 8103.643064,3001.086229 8070.672252,3002.871693 8068.159059,3010.231575 8064.612630,3012.540636 8061.260453,3012.288905 8058.321434,3010.127534 8021.129378,3011.526796 8017.620431,3013.569625 8013.265012,3013.838285 8008.304803,3009.494554 8008.692906,3005.270175 7975.505469,3006.615151 7975.603900,3002.659744 7966.692641,3002.390669"/>
    <poly id="135130400" type="leisure.park" color="207,245,201" fill="1" layer="-2.00" shape="8519.836718,2937.841801 8519.856471,2936.866851 8520.206122,2919.705489 8519.171500,2886.442661 8585.779878,2885.713509 8566.403381,2906.679833 8528.864556,2936.758642 8519.836718,2937.841801"/>
    <poly id="135130569" type="building.commercial" color="255,230,230" fill="1" layer="-1.00" shape="8053.513458,2372.523026 8053.097271,2345.234847 8120.187482,2344.022078 8120.563542,2371.343915 8053.513458,2372.523026"/>
    <poly id="136052928" type="amenity.school" color="237,199,199" fill="0" layer="-1.00" shape="7664.948832,1734.200029 7693.396296,1701.116064 7741.234368,1675.298757 7781.915557,1645.438660 7781.481380,1570.886919"/>
    <poly id="136053052" type="shop.funeral_directors" color="237,199,255" fill="1" layer="-1.00" shape="7910.254764,2490.676287 7912.027428,2548.177796 7825.562337,2550.808859 7824.206726,2506.694416 7822.523978,2451.938918 7821.699352,2425.175740 7832.279362,2424.850685 7855.527235,2424.144760 7938.825979,2421.592513 7967.298226,2420.719468 7968.263472,2456.774367 7968.319364,2460.074583 7969.397660,2488.862024 7910.254764,2490.676287"/>
    <poly id="136053076" type="amenity.marketplace" color="237,199,199" fill="1" layer="-1.00" shape="8235.181004,2325.976352 8234.071120,2325.035755 8233.991529,2321.403501 8234.939805,2321.393259 8234.611916,2307.850161 8242.953060,2299.197884 8242.265557,2298.130883 8242.148288,2296.614660 8242.477167,2295.304073 8243.514004,2294.151989 8244.717634,2293.496548 8246.341811,2293.479006 8247.669926,2294.073873 8248.425175,2294.874306 8248.869128,2295.811019 8248.955295,2297.250042 8248.664974,2298.394063 8250.958829,2300.595679 8260.995606,2300.409749 8261.480284,2320.065415 8256.356038,2320.165061 8256.371707,2321.615922 8256.060492,2322.693710 8255.515816,2323.641100 8255.147463,2324.099217 8254.308560,2324.894713 8253.576918,2325.345678 8252.582509,2325.755174 8251.412536,2325.789962 8235.181004,2325.976352"/>
    <poly id="136053076#1" type="building.retail" color="255,230,230" fill="1" layer="-1.00" shape="8235.181004,2325.976352 8234.071120,2325.035755 8233.991529,2321.403501 8234.939805,2321.393259 8234.611916,2307.850161 8242.953060,2299.197884 8242.265557,2298.130883 8242.148288,2296.614660 8242.477167,2295.304073 8243.514004,2294.151989 8244.717634,2293.496548 8246.341811,2293.479006 8247.669926,2294.073873 8248.425175,2294.874306 8248.869128,2295.811019 8248.955295,2297.250042 8248.664974,2298.394063 8250.958829,2300.595679 8260.995606,2300.409749 8261.480284,2320.065415 8256.356038,2320.165061 8256.371707,2321.615922 8256.060492,2322.693710 8255.515816,2323.641100 8255.147463,2324.099217 8254.308560,2324.894713 8253.576918,2325.345678 8252.582509,2325.755174 8251.412536,2325.789962 8235.181004,2325.976352"/>
    <poly id="136053134" type="leisure.park" color="207,245,201" fill="1" layer="-2.00" shape="8261.434198,2286.836222 8231.964685,2286.944047 8230.594241,2253.474395 8261.065220,2252.669009 8261.434198,2286.836222"/>
    <poly id="136053169" type="building.commercial" color="255,230,230" fill="1" layer="-1.00" shape="8518.156295,2440.456073 8517.966034,2427.487481 8520.800629,2427.445845 8520.720753,2421.908429 8517.855893,2421.950392 8517.659663,2408.428036 8549.445528,2407.963548 8549.642563,2421.563429 8546.606208,2421.607234 8546.683925,2426.945294 8549.740455,2426.901272 8549.931999,2439.991691 8518.156295,2440.456073"/>
    <poly id="137317897" type="waterway.stream" color="181,209,209" fill="0" layer="-4.00" shape="7992.280942,4147.156700 7990.105105,4082.227062"/>
    <poly id="137317906" type="waterway.stream" color="181,209,209" fill="0" layer="-4.00" shape="7990.105105,4082.227062 7989.760271,4071.807713"/>
    <poly id="137317910" type="waterway.stream" color="181,209,209" fill="0" layer="-4.00" shape="7992.533119,4154.608523 7992.280942,4147.156700"/>
    <poly id="137317911" type="natural.water" color="181,209,209" fill="1" layer="-4.00" shape="7973.614059,4256.684908 7969.045803,4254.962122 7967.325344,4252.588207 7959.989023,4251.427078 7948.773601,4246.043473 7937.733970,4240.126295 7934.593946,4236.150575 7922.254085,4230.336106 7903.296637,4211.489714 7892.556118,4199.665498 7874.003381,4180.006165 7865.513939,4169.254159 7855.726430,4156.943347 7859.915683,4150.683969 7867.563213,4148.906375 7894.248658,4149.182134 7899.451288,4157.311381 7943.722757,4155.989990 7966.464485,4159.122062 7992.533119,4154.608523 8010.766516,4160.625092 8027.218759,4159.594092 8046.168034,4153.463004 8057.540992,4154.757721 8068.636654,4157.462176 8079.343841,4149.437619 8086.711102,4148.792994 8091.876944,4153.533266 8094.698138,4156.947563 8093.972809,4164.498574 8084.108873,4170.276522 8072.192532,4170.970376 8060.257852,4169.969719 8053.759220,4172.576592 8050.121659,4178.553019 8042.534615,4195.238961 8038.696359,4197.584439 8032.753485,4199.343486 8026.777899,4197.148544 8021.618163,4192.973136 8011.695029,4194.210374 8006.390273,4202.730329 7996.248995,4209.906999 7999.015695,4228.784806 7987.427954,4254.231390 7980.275114,4253.245489 7973.614059,4256.684908"/>
    <poly id="146870024" type="building.commercial" color="255,230,230" fill="1" layer="-1.00" shape="8476.009640,1258.112545 8477.942334,1258.623387 8479.888340,1259.433152 8481.465119,1260.623499 8482.699236,1261.850769 8483.662864,1263.258180 8484.455937,1264.756041 8484.847010,1266.402230 8485.034993,1267.928766 8485.013499,1269.679091 8484.786528,1271.088258 8484.239222,1272.733484 8483.576881,1274.003349 8482.602503,1275.343036 8445.705293,1276.449683 8446.716473,1306.600201 8404.819728,1308.170698 8403.246814,1260.558528 8424.948876,1259.482687 8445.044609,1259.155250 8476.009640,1258.112545"/>
    <poly id="150369302" type="natural.wood" color="140,196,107" fill="0" layer="-4.00" shape="7646.291067,4441.291917 7543.636252,4424.340528 7546.966729,4405.906075 7535.536856,4404.003197 7536.002132,4396.687568 7523.502716,4394.763087"/>
    <poly id="154156348" type="natural.water" color="181,209,209" fill="1" layer="-4.00" shape="7969.415962,4629.114853 7964.838937,4616.326636 7935.015163,4600.965217 7924.388024,4579.093274 7924.201558,4561.882239 7947.417698,4546.477931 7973.413459,4548.345224 7978.919565,4567.747194 7986.651685,4582.184892 7974.982944,4603.844193 7971.293764,4612.490676 7977.936664,4626.951242 7982.808368,4626.898480 8061.959054,4589.987153 8069.434901,4580.756960 8040.629265,4509.414204 8022.543186,4488.077081 8006.615674,4466.727683 7991.684731,4447.051154 7994.378418,4385.591126 7970.534992,4383.157711 7924.026660,4435.865531 7912.885025,4455.901985 7886.401840,4468.650129 7868.354900,4491.907215 7836.903724,4535.834595 7853.554740,4623.912576 7872.979710,4629.162804 7894.318755,4640.694910 7919.745505,4649.646213 7949.963254,4641.786748 7969.415962,4629.114853"/>
    <poly id="155814555" type="building.retail" color="255,230,230" fill="1" layer="-1.00" shape="9059.427516,1260.498214 9144.495131,1257.602479 9146.752407,1257.334575 9148.772768,1256.615077 9150.456040,1255.511519 9151.625615,1254.491008 9152.909483,1252.837910 9154.116670,1250.620733 9154.967777,1248.130464 9155.396820,1245.799795 9155.567938,1242.940220 9155.409810,1240.427550 9155.127419,1238.558651 9154.708419,1237.123201 9154.146750,1235.556363 9153.454520,1234.046309 9152.354579,1232.152952 9151.270311,1230.780022 9150.199340,1229.706015 9149.000066,1228.899221 9147.559730,1228.194703 9145.607835,1227.772586 9057.454045,1230.812201 9058.345381,1259.324645 9058.593339,1259.864732 9058.961054,1260.281691 9059.427516,1260.498214"/>
    <poly id="155814555#1" type="shop.mall" color="237,199,255" fill="1" layer="-1.00" shape="9059.427516,1260.498214 9144.495131,1257.602479 9146.752407,1257.334575 9148.772768,1256.615077 9150.456040,1255.511519 9151.625615,1254.491008 9152.909483,1252.837910 9154.116670,1250.620733 9154.967777,1248.130464 9155.396820,1245.799795 9155.567938,1242.940220 9155.409810,1240.427550 9155.127419,1238.558651 9154.708419,1237.123201 9154.146750,1235.556363 9153.454520,1234.046309 9152.354579,1232.152952 9151.270311,1230.780022 9150.199340,1229.706015 9149.000066,1228.899221 9147.559730,1228.194703 9145.607835,1227.772586 9057.454045,1230.812201 9058.345381,1259.324645 9058.593339,1259.864732 9058.961054,1260.281691 9059.427516,1260.498214"/>
    <poly id="155814556" type="building.commercial" color="255,230,230" fill="1" layer="-1.00" shape="9064.623602,1260.475658 9065.412694,1286.984351 9066.449202,1316.802266 9066.665930,1322.892020 9067.027897,1333.111753 9066.674910,1333.126620 9066.726871,1337.966497 9067.344140,1341.892031 9068.173491,1344.895938 9069.603904,1348.436142 9071.691629,1352.113283 9073.780049,1354.915373 9076.800078,1358.028680 9079.293810,1360.051064 9082.037144,1361.827085 9085.465678,1363.518216 9089.040787,1364.764713 9093.045548,1365.618922 9096.105758,1365.896215 9098.769298,1365.878702 9102.286455,1365.486501 9105.557442,1364.720343 9108.161148,1363.828429 9111.243287,1362.388632 9113.159178,1361.337954 9115.092988,1360.076630 9116.781934,1358.563174 9119.008303,1356.357208 9120.980553,1353.976745 9122.836878,1353.956823 9124.760496,1353.626036 9126.409104,1353.054518 9128.004297,1352.206661 9129.575628,1351.015688 9130.802636,1349.706569 9131.785969,1348.256071 9132.634108,1346.430422 9133.223254,1343.976192 9133.257045,1341.483615 9132.798865,1339.217847 9132.073281,1337.420163 9131.015838,1335.725729 9131.302707,1335.190978 9157.455196,1334.201456 9158.099331,1334.050551 9158.580619,1333.768474 9158.937041,1333.133289 9159.033175,1332.689197 9158.448031,1313.887568 9158.363043,1313.489726 9158.106903,1313.126949 9157.698481,1312.677194 9157.172084,1312.516695 9143.331859,1312.809192 9156.444330,1288.887239 9157.718666,1284.465117 9157.932657,1283.720695 9157.412230,1267.189056 9157.222908,1266.471115 9156.691161,1265.812229 9155.939481,1265.344005 9155.171189,1265.208253 9144.801935,1265.507812 9141.896601,1265.561139 9137.690527,1265.694884 9136.885207,1265.869673 9136.041552,1266.233174 9135.451661,1266.737947 9135.076488,1267.506252 9134.957218,1268.615183 9135.381486,1281.824902 9128.553405,1282.086475 9115.955970,1282.542886 9115.739203,1280.208069 9115.039126,1277.967052 9114.040308,1276.094765 9112.359717,1273.687046 9110.139798,1271.794636 9107.753005,1270.336000 9105.392809,1269.475211 9102.866095,1269.081423 9100.062125,1269.177978 9097.565456,1269.703218 9094.974912,1270.882981 9092.620928,1272.481112 9091.043543,1274.048755 9090.048693,1275.366462 9088.950594,1277.405250 9088.186613,1279.551217 9084.191575,1279.605178 9083.606909,1259.917421 9064.623602,1260.475658"/>
    <poly id="155814556#1" type="tourism.hotel" color="207,245,201" fill="1" layer="-2.00" shape="9064.623602,1260.475658 9065.412694,1286.984351 9066.449202,1316.802266 9066.665930,1322.892020 9067.027897,1333.111753 9066.674910,1333.126620 9066.726871,1337.966497 9067.344140,1341.892031 9068.173491,1344.895938 9069.603904,1348.436142 9071.691629,1352.113283 9073.780049,1354.915373 9076.800078,1358.028680 9079.293810,1360.051064 9082.037144,1361.827085 9085.465678,1363.518216 9089.040787,1364.764713 9093.045548,1365.618922 9096.105758,1365.896215 9098.769298,1365.878702 9102.286455,1365.486501 9105.557442,1364.720343 9108.161148,1363.828429 9111.243287,1362.388632 9113.159178,1361.337954 9115.092988,1360.076630 9116.781934,1358.563174 9119.008303,1356.357208 9120.980553,1353.976745 9122.836878,1353.956823 9124.760496,1353.626036 9126.409104,1353.054518 9128.004297,1352.206661 9129.575628,1351.015688 9130.802636,1349.706569 9131.785969,1348.256071 9132.634108,1346.430422 9133.223254,1343.976192 9133.257045,1341.483615 9132.798865,1339.217847 9132.073281,1337.420163 9131.015838,1335.725729 9131.302707,1335.190978 9157.455196,1334.201456 9158.099331,1334.050551 9158.580619,1333.768474 9158.937041,1333.133289 9159.033175,1332.689197 9158.448031,1313.887568 9158.363043,1313.489726 9158.106903,1313.126949 9157.698481,1312.677194 9157.172084,1312.516695 9143.331859,1312.809192 9156.444330,1288.887239 9157.718666,1284.465117 9157.932657,1283.720695 9157.412230,1267.189056 9157.222908,1266.471115 9156.691161,1265.812229 9155.939481,1265.344005 9155.171189,1265.208253 9144.801935,1265.507812 9141.896601,1265.561139 9137.690527,1265.694884 9136.885207,1265.869673 9136.041552,1266.233174 9135.451661,1266.737947 9135.076488,1267.506252 9134.957218,1268.615183 9135.381486,1281.824902 9128.553405,1282.086475 9115.955970,1282.542886 9115.739203,1280.208069 9115.039126,1277.967052 9114.040308,1276.094765 9112.359717,1273.687046 9110.139798,1271.794636 9107.753005,1270.336000 9105.392809,1269.475211 9102.866095,1269.081423 9100.062125,1269.177978 9097.565456,1269.703218 9094.974912,1270.882981 9092.620928,1272.481112 9091.043543,1274.048755 9090.048693,1275.366462 9088.950594,1277.405250 9088.186613,1279.551217 9084.191575,1279.605178 9083.606909,1259.917421 9064.623602,1260.475658"/>
    <poly id="155814783" type="building.commercial" color="255,230,230" fill="1" layer="-1.00" shape="8722.336527,1323.757487 8741.931879,1323.823545 8742.359670,1338.262733 8772.342201,1336.887889 8762.352243,1323.670301 8740.730658,1294.705205 8739.298409,1294.753846 8739.260118,1293.070626 8734.664353,1286.994757 8725.735776,1287.090833 8721.470257,1292.951910 8722.336527,1323.757487"/>
    <poly id="155814783#1" type="shop.mall" color="237,199,255" fill="1" layer="-1.00" shape="8722.336527,1323.757487 8741.931879,1323.823545 8742.359670,1338.262733 8772.342201,1336.887889 8762.352243,1323.670301 8740.730658,1294.705205 8739.298409,1294.753846 8739.260118,1293.070626 8734.664353,1286.994757 8725.735776,1287.090833 8721.470257,1292.951910 8722.336527,1323.757487"/>
    <poly id="155815990" type="leisure.park" color="207,245,201" fill="1" layer="-2.00" shape="8963.636897,1443.015697 8971.696668,1442.829416 8966.777209,1337.112613 8906.004528,1337.942875 8886.927400,1341.027821 8963.636897,1443.015697"/>
    <poly id="166331178" type="building.office" color="255,230,230" fill="1" layer="-1.00" shape="9475.917582,2349.460567 9487.513575,2342.258487 9497.328487,2339.262409 9504.378096,2338.068190 9504.320978,2342.156032 9520.446549,2342.448575 9520.462607,2338.294715 9530.007717,2340.252746 9539.172069,2344.341549 9550.134178,2351.434997 9563.152474,2335.722081 9552.722652,2328.401394 9540.826839,2322.680349 9530.755256,2319.609219 9520.252247,2317.705749 9507.433139,2317.156267 9498.384554,2318.227895 9487.933608,2321.186477 9479.017109,2324.228321 9468.085611,2330.359946 9463.671685,2333.663717 9475.917582,2349.460567"/>
    <poly id="172384598" type="leisure.park" color="207,245,201" fill="0" layer="-2.00" shape="10780.435114,4219.811010 10825.216156,4357.713675 10732.201293,4407.327561 10721.275583,4397.751763 10793.223965,4293.665967 10791.508511,4285.066696 10770.287547,4273.994134"/>
    <poly id="172955197" type="leisure.pitch" color="207,245,201" fill="1" layer="-2.00" shape="7437.259294,3800.364604 7436.234113,3758.938090 7491.674082,3757.571490 7492.699094,3798.997999 7437.259294,3800.364604"/>
    <poly id="172955197#1" type="sport.tennis" color="79,230,125" fill="1" layer="-2.00" shape="7437.259294,3800.364604 7436.234113,3758.938090 7491.674082,3757.571490 7492.699094,3798.997999 7437.259294,3800.364604"/>
    <poly id="172956542" type="leisure.golf_course" color="207,245,201" fill="1" layer="-2.00" shape="9998.917722,4542.531131 9992.857965,4370.921039 10084.772153,4367.702116 10086.096398,4404.816422 10087.987722,4472.373988 10090.840836,4539.312084 9998.917722,4542.531131"/>
    <poly id="172956577" type="building.retail" color="255,230,230" fill="1" layer="-1.00" shape="9880.418139,4543.298989 9878.187970,4494.154177 9874.849588,4420.608574 9875.336268,4418.952971 9876.368918,4417.413373 9877.686238,4416.081185 9879.634362,4415.251774 9904.837014,4415.613743 9905.863674,4416.344896 9906.833249,4417.397879 9907.560512,4418.431298 9907.928097,4419.789780 9908.182035,4437.886089 9941.422446,4438.062529 9941.176669,4447.158972 9945.323484,4447.236503 9945.049449,4465.017233 9941.377411,4465.001088 9941.522108,4504.974675 9939.271784,4504.899033 9939.521071,4522.563408 9945.330098,4522.434874 9945.632102,4534.649041 9924.345307,4534.444537 9924.538992,4542.184950 9880.418139,4543.298989"/>
    <poly id="172956577#1" type="shop.department_store" color="237,199,255" fill="1" layer="-1.00" shape="9880.418139,4543.298989 9878.187970,4494.154177 9874.849588,4420.608574 9875.336268,4418.952971 9876.368918,4417.413373 9877.686238,4416.081185 9879.634362,4415.251774 9904.837014,4415.613743 9905.863674,4416.344896 9906.833249,4417.397879 9907.560512,4418.431298 9907.928097,4419.789780 9908.182035,4437.886089 9941.422446,4438.062529 9941.176669,4447.158972 9945.323484,4447.236503 9945.049449,4465.017233 9941.377411,4465.001088 9941.522108,4504.974675 9939.271784,4504.899033 9939.521071,4522.563408 9945.330098,4522.434874 9945.632102,4534.649041 9924.345307,4534.444537 9924.538992,4542.184950 9880.418139,4543.298989"/>
    <poly id="173220793" type="leisure.pitch" color="207,245,201" fill="1" layer="-2.00" shape="9647.205666,3979.883470 9646.486175,3956.021272 9657.468425,3955.693257 9658.197984,3979.555346 9647.205666,3979.883470"/>
    <poly id="173220793#1" type="sport.tennis" color="79,230,125" fill="1" layer="-2.00" shape="9647.205666,3979.883470 9646.486175,3956.021272 9657.468425,3955.693257 9658.197984,3979.555346 9647.205666,3979.883470"/>
    <poly id="173939375" type="amenity.school" color="237,199,199" fill="1" layer="-1.00" shape="8801.051398,4423.180300 8959.127834,4429.110622 8966.362077,4412.362580 8976.486830,4397.056634 9018.893825,4344.385681 9019.285507,4340.471446 8800.142582,4330.357384 8796.288778,4334.076305 8796.725275,4421.443562 8801.051398,4423.180300"/>
    <poly id="173939456" type="amenity.school" color="237,199,199" fill="0" layer="-1.00" shape="8583.822084,4085.304391 8736.241724,4076.096323 8742.101588,4083.476652 8748.710518,4263.410737 8729.401930,4263.352910 8728.397573,4291.852665 8581.693535,4284.550612 8582.289391,4225.683264"/>
    <poly id="183431071" type="leisure.park" color="207,245,201" fill="0" layer="-2.00" shape="9215.249745,4196.829613 9111.147451,4199.044412 9111.469668,4227.153231 9130.552539,4286.008347 9135.338520,4292.990534 9151.782506,4303.414126"/>
    <poly id="183581233" type="amenity.school" color="237,199,199" fill="0" layer="-1.00" shape="9216.470006,4333.955208 9262.149181,4325.700113 9353.247277,4323.470842 9350.670563,4199.884322 9264.073678,4200.503450 9260.016288,4196.548372 9215.249745,4196.829613"/>
    <poly id="183801913" type="leisure.park" color="207,245,201" fill="1" layer="-2.00" shape="6452.833930,3773.680296 6525.308749,3926.930988 6605.638280,3887.960256 6637.609412,3864.117313 6691.590652,3812.342401 6721.566520,3762.801463 6732.789665,3706.896871 6708.266763,3664.552716 6696.446195,3631.562581 6691.351354,3613.064812 6662.711389,3611.295186 6643.295217,3567.322467 6593.070509,3550.270374 6514.421246,3497.662944 6484.119585,3538.623475 6433.255319,3520.316206 6416.309446,3581.423279 6395.576727,3602.529646 6407.295895,3645.545064 6486.721238,3744.244478 6462.530880,3769.265404 6452.833930,3773.680296"/>
    <poly id="183802052" type="historic.archaeological_site" color="128,255,128" fill="1" layer="-1.00" shape="6434.005619,3783.489738 6460.899906,3766.802069 6478.508944,3746.970536 6424.899532,3681.462425 6406.560203,3647.458302 6394.365283,3610.750717 6379.573359,3619.751765 6381.513256,3635.692025 6374.400734,3635.670169 6391.203364,3678.585640 6406.877202,3718.843999 6427.844050,3775.404714 6434.005619,3783.489738"/>
    <poly id="183802204" type="amenity.place_of_worship" color="237,199,199" fill="1" layer="-1.00" shape="6377.252213,3615.988943 6385.423346,3614.105105 6383.370564,3601.677386 6389.006768,3584.790243 6402.624853,3591.132168 6410.734051,3573.442612 6425.605533,3528.364013 6430.706782,3509.599713 6428.367034,3505.981083 6389.809332,3484.803410 6357.284944,3474.736173 6361.231429,3518.235388 6365.574384,3551.872026 6365.533590,3562.893764 6372.058991,3596.838820 6377.252213,3615.988943"/>
    <poly id="183864395" type="leisure.park" color="207,245,201" fill="0" layer="-2.00" shape="10359.134989,3988.031546 10349.708019,3984.731493 10089.261237,4044.486191 9979.437418,4051.341027 9977.017082,4023.077487 10091.085197,4012.167654 10371.791952,3946.049760 10576.909888,3897.743987 10647.789746,3896.990252 10646.594843,3937.365614 10570.586980,3934.939583 10506.779195,3951.834432 10506.255042,3963.248782"/>
    <poly id="183864396" type="leisure.park" color="207,245,201" fill="1" layer="-2.00" shape="10665.967421,3937.724566 10667.817669,3897.309013 10817.202695,3899.498957 11134.458366,4014.795709 11139.231808,4031.160426 11084.225733,4049.498928 11081.039202,4029.628323 10852.925001,3951.854700 10806.785241,3937.812304 10665.967421,3937.724566"/>
    <poly id="183864398" type="leisure.park" color="207,245,201" fill="1" layer="-2.00" shape="9469.069484,4044.484754 9502.718468,4073.277552 9954.854184,4053.309406 9955.505574,4022.686986 9950.671877,4019.703662 9918.986734,4020.728935 9520.526469,4037.774763 9469.069484,4044.484754"/>
    <poly id="183865341" type="leisure.park" color="207,245,201" fill="1" layer="-2.00" shape="10844.322521,4058.501598 10835.825915,4033.547931 10843.614319,4002.251764 10934.335034,4034.651133 10844.322521,4058.501598"/>
    <poly id="183865342" type="leisure.park" color="207,245,201" fill="1" layer="-2.00" shape="9675.620429,4182.246397 9701.291919,4182.071324 9700.953693,4127.844305 9675.588967,4128.414843 9675.620429,4182.246397"/>
    <poly id="183866360" type="leisure.park" color="207,245,201" fill="1" layer="-2.00" shape="8836.618667,4258.110963 8883.633714,4258.679316 8886.088656,4253.391529 8842.939185,4216.461504 8837.410909,4219.256928 8836.618667,4258.110963"/>