<?xml version="1.0" encoding="UTF-8"?>

<!-- generated on 11/10/20 21:54:00 by Eclipse SUMO netconvert Version 1.7.0
<configuration xmlns:xsi="http://www.w3.org/2001/XMLSchema-instance" xsi:noNamespaceSchemaLocation="http://sumo.dlr.de/xsd/netconvertConfiguration.xsd">

    <input>
        <type-files value="D:\SUMO\data\typemap\osmNetconvert.typ.xml"/>
        <osm-files value="osm_bbox.osm.xml"/>
    </input>

    <output>
        <output-file value="osm.net.xml"/>
        <output.street-names value="true"/>
        <output.original-names value="true"/>
        <ptstop-output value="osm_stops.add.xml"/>
        <ptline-output value="osm_ptlines.xml"/>
    </output>

    <projection>
        <proj.utm value="true"/>
    </projection>

    <processing>
        <geometry.remove value="true"/>
        <roundabouts.guess value="true"/>
    </processing>

    <tls_building>
        <tls.discard-simple value="true"/>
        <tls.join value="true"/>
        <tls.guess-signals value="true"/>
        <tls.default-type value="actuated"/>
    </tls_building>

    <ramp_guessing>
        <ramps.guess value="true"/>
    </ramp_guessing>

    <junctions>
        <junctions.join value="true"/>
        <junctions.corner-detail value="5"/>
    </junctions>

    <railway>
        <railway.topology.repair value="true"/>
        <railway.topology.repair.stop-turn value="true"/>
    </railway>

    <report>
        <verbose value="true"/>
        <aggregate-warnings value="5"/>
    </report>

</configuration>
-->

<additional xmlns:xsi="http://www.w3.org/2001/XMLSchema-instance" xsi:noNamespaceSchemaLocation="http://sumo.dlr.de/xsd/additional_file.xsd">
    <busStop id="-1493007672" name="行天宮" lane="-198281380_0" startPos="1934.57" endPos="2134.57" friendlyPos="true">
        <access lane="265736010#3_0" pos="64.67" length="11.93" friendlyPos="1"/>
        <access lane="265736010#4_0" pos="0.00" length="35.93" friendlyPos="1"/>
        <access lane="495021759#7_0" pos="13.78" length="22.82" friendlyPos="1"/>
        <access lane="50823651#1_0" pos="34.09" length="39.39" friendlyPos="1"/>
        <access lane="593840517#1_0" pos="90.17" length="10.25" friendlyPos="1"/>
    </busStop>
    <busStop id="-1493007755" name="松江南京" lane="-198281380_0" startPos="1114.63" endPos="1314.63" friendlyPos="true">
        <access lane="232003900#1_0" pos="0.00" length="29.83" friendlyPos="1"/>
        <access lane="494737329_0" pos="3.97" length="33.17" friendlyPos="1"/>
        <access lane="494737330#0_0" pos="1.15" length="28.28" friendlyPos="1"/>
        <access lane="495030817#0_0" pos="0.00" length="34.40" friendlyPos="1"/>
        <access lane="593841520#2_0" pos="84.99" length="34.07" friendlyPos="1"/>
    </busStop>
    <busStop id="-1493007755@4250356" name="松江南京" lane="-196868581_0" startPos="1684.93" endPos="1884.93" friendlyPos="true">
        <access lane="232003900#1_0" pos="0.00" length="29.83" friendlyPos="1"/>
        <access lane="494737329_0" pos="3.97" length="33.17" friendlyPos="1"/>
        <access lane="494737330#0_0" pos="1.15" length="28.28" friendlyPos="1"/>
        <access lane="495030817#0_0" pos="0.00" length="34.40" friendlyPos="1"/>
        <access lane="593841520#2_0" pos="84.99" length="34.07" friendlyPos="1"/>
    </busStop>
    <busStop id="-1681745146" name="大直" lane="-195696234_0" startPos="0.00" endPos="100.00" friendlyPos="true">
        <access lane="338923676#0_0" pos="18.24" length="8.87" friendlyPos="1"/>
        <access lane="338923676#1_0" pos="0.00" length="0.93" friendlyPos="1"/>
        <access lane="407206572#13_0" pos="64.87" length="16.40" friendlyPos="1"/>
        <access lane="810584621#1_0" pos="3.91" length="7.69" friendlyPos="1"/>
        <access lane="810584621#2_0" pos="0.00" length="5.07" friendlyPos="1"/>
    </busStop>
    <busStop id="-1681745146@447449" name="大直" lane="-195696227_0" startPos="0.00" endPos="83.97" friendlyPos="true">
        <access lane="338923676#0_0" pos="18.24" length="8.87" friendlyPos="1"/>
        <access lane="338923676#1_0" pos="0.00" length="0.93" friendlyPos="1"/>
        <access lane="407206572#13_0" pos="64.87" length="16.40" friendlyPos="1"/>
        <access lane="810584621#1_0" pos="3.91" length="7.69" friendlyPos="1"/>
        <access lane="810584621#2_0" pos="0.00" length="5.07" friendlyPos="1"/>
    </busStop>
    <busStop id="-2061145789" name="大直" lane="-195696225_0" startPos="0.00" endPos="100.00" friendlyPos="true">
        <access lane="338923676#0_0" pos="18.24" length="9.34" friendlyPos="1"/>
        <access lane="338923676#1_0" pos="0.38" length="3.42" friendlyPos="1"/>
        <access lane="407206572#13_0" pos="64.87" length="12.24" friendlyPos="1"/>
        <access lane="810584621#1_0" pos="3.91" length="5.56" friendlyPos="1"/>
        <access lane="810584621#2_0" pos="0.00" length="9.16" friendlyPos="1"/>
    </busStop>
    <busStop id="-2061145790" name="大直" lane="-195696217_0" startPos="0.00" endPos="86.17" friendlyPos="true">
        <access lane="338923676#0_0" pos="18.24" length="11.43" friendlyPos="1"/>
        <access lane="338923676#1_0" pos="0.00" length="4.72" friendlyPos="1"/>
        <access lane="407206572#13_0" pos="64.87" length="20.43" friendlyPos="1"/>
        <access lane="810584621#1_0" pos="3.91" length="11.60" friendlyPos="1"/>
        <access lane="810584621#2_0" pos="0.09" length="3.11" friendlyPos="1"/>
    </busStop>
    <busStop id="-2084404366" name="行天宮" lane="-198281380_0" startPos="1930.13" endPos="2130.13" friendlyPos="true">
        <access lane="265736010#3_0" pos="60.21" length="17.86" friendlyPos="1"/>
        <access lane="265736010#4_0" pos="0.00" length="44.33" friendlyPos="1"/>
        <access lane="495021759#7_0" pos="18.19" length="28.82" friendlyPos="1"/>
        <access lane="51364295#1_0" pos="0.00" length="41.51" friendlyPos="1"/>
        <access lane="593840517#1_0" pos="94.61" length="4.31" friendlyPos="1"/>
    </busStop>
    <busStop id="-2084404443" name="中山國小" lane="-198281393_0" startPos="374.54" endPos="574.54" friendlyPos="true">
        <access lane="313235566#3_0" pos="44.42" length="20.35" friendlyPos="1"/>
        <access lane="506597799#1_0" pos="74.63" length="3.75" friendlyPos="1"/>
        <access lane="52248857#0_0" pos="0.00" length="80.31" friendlyPos="1"/>
        <access lane="742681152_0" pos="73.06" length="17.29" friendlyPos="1"/>
        <access lane="742681153#1_0" pos="52.93" length="35.35" friendlyPos="1"/>
    </busStop>
    <busStop id="-2124843045" name="聚盛里" lane="-308987019#2_0" startPos="36.82" endPos="51.82" friendlyPos="true" lines="638"/>
    <busStop id="-2442990954@3834875" name="南京吉林路口" lane="-288878934_0" startPos="5.24" endPos="14.98" friendlyPos="true" lines="52"/>
    <busStop id="-2491474584" name="新興國中" lane="-308987019#10_0" startPos="3.06" endPos="18.06" friendlyPos="true" lines="638"/>
    <busStop id="-2509549126" name="中山國小" lane="-308286090#11_0" startPos="20.33" endPos="35.33" friendlyPos="true" lines="208"/>
    <busStop id="-2509549137" name="景福宮" lane="-308286090#2_0" startPos="24.88" endPos="39.88" friendlyPos="true" lines="208"/>
    <busStop id="-2509668586" name="捷運圓山站(圓山公園)" lane="-241536989#0_0" startPos="21.45" endPos="36.45" friendlyPos="true" lines="208"/>
    <busStop id="-2509991263" name="基河二期國宅二" lane="-244421750#2_0" startPos="12.12" endPos="27.12" friendlyPos="true" lines="208 208直 72"/>
    <busStop id="-2517390807" name="基湖站" lane="-244421761#1_0" startPos="16.21" endPos="31.21" friendlyPos="true" lines="內科圓山 21 棕20 645 綠16"/>
    <busStop id="-2517390809" name="基湖路口" lane="-326352589#1_0" startPos="71.33" endPos="86.33" friendlyPos="true" lines="內科圓山 NH18 NH10 21 藍27"/>
    <busStop id="-2517390869" name="美堤碼頭" lane="-244421751_0" startPos="26.21" endPos="41.21" friendlyPos="true" lines="棕20"/>
    <busStop id="-2631129011" name="聯合醫院中興院區(塔城)" lane="-244450426#1_0" startPos="1.63" endPos="16.63" friendlyPos="true" lines="274 52 302 綠17 12 9"/>
    <busStop id="-2657578307" name="吉林路底" lane="-260789406#4_0" startPos="0.74" endPos="15.74" friendlyPos="true" lines="685吉林 688 紅57"/>
    <busStop id="-2657578308" name="新壽公園" lane="-260789406#19_0" startPos="5.45" endPos="20.45" friendlyPos="true" lines="685吉林 688 紅57"/>
    <busStop id="-2657578311" name="新福里" lane="-260789406#16_0" startPos="21.37" endPos="36.37" friendlyPos="true" lines="685吉林 688 紅57"/>
    <busStop id="-2700742524" name="海光新村" lane="-301750978#13_0" startPos="10.92" endPos="25.92" friendlyPos="true" lines="2 206 669 9"/>
    <busStop id="-2700743214" name="社子消防分隊" lane="-301750978#17_0" startPos="9.43" endPos="24.43" friendlyPos="true" lines="2 206 669 9"/>
    <busStop id="-2700745271" name="污水處理廠" lane="-312929527#10_0" startPos="34.17" endPos="49.17" friendlyPos="true" lines="2 206 669 9"/>
    <busStop id="-2700746722" name="鄰江里" lane="-159458610#7_0" startPos="0.00" endPos="14.31" friendlyPos="true" lines="206 41 669"/>
    <busStop id="-2700749824" name="天師宮" lane="-355582249#2_0" startPos="11.77" endPos="26.77" friendlyPos="true" lines="206 41 669"/>
    <busStop id="-2700750818" name="延平國小" lane="-50893434#16_0" startPos="30.95" endPos="45.95" friendlyPos="true" lines="206"/>
    <busStop id="-2700751797" name="延三觀光夜市" lane="-50893434#7_0" startPos="7.22" endPos="22.22" friendlyPos="true" lines="206 41 669"/>
    <busStop id="-2700754540" name="台北橋" lane="-312929526#0_0" startPos="59.51" endPos="74.51" friendlyPos="true" lines="206"/>
    <busStop id="-2700756623" name="保安街口" lane="-199980019#11_0" startPos="9.04" endPos="24.04" friendlyPos="true" lines="274 206 669 9"/>
    <busStop id="-2700757811" name="民生西路口(大稻埕碼頭)" lane="-199980019#3_0" startPos="6.37" endPos="21.37" friendlyPos="true" lines="274 206 669 9"/>
    <busStop id="-2700761742" name="南京西路口(鈕扣街)" lane="-51392802#1_0" startPos="26.58" endPos="41.58" friendlyPos="true" lines="274 206 669 9"/>
    <busStop id="-2700763928" name="延平長安路口" lane="-31051190#2_0" startPos="33.40" endPos="48.40" friendlyPos="true" lines="274 206 601 223 669"/>
    <busStop id="-2700765836" name="延平鄭州路口" lane="-31051190#6_0" startPos="104.67" endPos="119.67" friendlyPos="true" lines="274 206 601 223 669"/>
    <busStop id="-2706621452" name="圓環 (鈕扣街)" lane="-51911170#4_0" startPos="8.74" endPos="23.74" friendlyPos="true" lines="601 302 223"/>
    <busStop id="-2811356129" name="台北小巨蛋" lane="-196868577#0_0" startPos="1407.98" endPos="1586.32" friendlyPos="true">
        <access lane="374427273#2_0" pos="46.57" length="6.07" friendlyPos="1"/>
        <access lane="506359650#1_0" pos="94.38" length="22.94" friendlyPos="1"/>
        <access lane="506359652#3_0" pos="33.00" length="28.74" friendlyPos="1"/>
        <access lane="506359668#1_0" pos="93.36" length="18.66" friendlyPos="1"/>
        <access lane="51268697#6_0" pos="1.64" length="58.45" friendlyPos="1"/>
    </busStop>
    <busStop id="-2811356130" name="南京三民" lane="-196868577#0_0" startPos="115.83" endPos="315.83" friendlyPos="true">
        <access lane="265738682#3_0" pos="79.61" length="14.22" friendlyPos="1"/>
        <access lane="310849376#1_0" pos="16.36" length="11.31" friendlyPos="1"/>
        <access lane="466274668#4_0" pos="79.69" length="18.86" friendlyPos="1"/>
        <access lane="759990578#6_0" pos="42.58" length="22.13" friendlyPos="1"/>
        <access lane="810546529#1_0" pos="1.34" length="28.27" friendlyPos="1"/>
    </busStop>
    <busStop id="-2924370652" name="南京東路口" lane="-506359600#2_0" startPos="8.48" endPos="23.48" friendlyPos="true" lines="52"/>
    <busStop id="-3034547900" name="長春國小" lane="-317388748#6_0" startPos="49.90" endPos="64.90" friendlyPos="true" lines="12 1501"/>
    <busStop id="-3188090049" name="南京西路口(塔城)" lane="-287316010#3_0" startPos="58.28" endPos="69.90" friendlyPos="true" lines="274 9"/>
    <busStop id="-3188090051" name="台北大學(台北校區)" lane="-437870662#3_0" startPos="39.06" endPos="54.06" friendlyPos="true" lines="12"/>
    <busStop id="-3188090055" name="延平一站(南京)" lane="-199980015#1_0" startPos="14.36" endPos="29.36" friendlyPos="true" lines="302"/>
    <busStop id="-3188090056" name="慶城街口" lane="-374332362#7_0" startPos="70.45" endPos="85.45" friendlyPos="true" lines="12 5116"/>
    <busStop id="-3188090785" name="長春市場" lane="-317388747#1_0" startPos="79.91" endPos="94.91" friendlyPos="true" lines="12 棕10"/>
    <busStop id="-3188479004" name="大龍峒保安宮" lane="-24836065#5_0" startPos="16.74" endPos="31.74" friendlyPos="true" lines="2 41 9"/>
    <busStop id="-3188479009" name="庫倫街" lane="-264309964#2_0" startPos="71.98" endPos="86.98" friendlyPos="true" lines="2 9"/>
    <busStop id="-3188479017" name="老師里" lane="-312929531#1_0" startPos="41.74" endPos="56.74" friendlyPos="true" lines="2 41 9023 9"/>
    <busStop id="-3188479019" name="酒泉街" lane="-312929531#6_0" startPos="12.01" endPos="27.01" friendlyPos="true" lines="2 41 9"/>
    <busStop id="-3188479021" name="酒泉重慶北路口" lane="-24836065#2_0" startPos="55.43" endPos="69.69" friendlyPos="true" lines="2 41 9"/>
    <busStop id="-3190313928" name="南京龍江路口" lane="-311319110#8_0" startPos="6.25" endPos="21.25" friendlyPos="true" lines="棕10"/>
    <busStop id="-3495094871@4250356" name="中山" lane="-194585046_0" startPos="0.00" endPos="116.42" friendlyPos="true">
        <access lane="204211736#1_0" pos="0.00" length="17.00" friendlyPos="1"/>
        <access lane="450732442#0_0" pos="458.70" length="16.67" friendlyPos="1"/>
        <access lane="450732442#1_0" pos="57.97" length="12.51" friendlyPos="1"/>
        <access lane="464590785#5_0" pos="7.65" length="13.56" friendlyPos="1"/>
        <access lane="541472439#4_0" pos="5.29" length="16.36" friendlyPos="1"/>
    </busStop>
    <busStop id="-3495094873@4250354" name="民權西路" lane="-198281393_0" startPos="1101.19" endPos="1213.35" friendlyPos="true">
        <access lane="265725164#2_0" pos="60.84" length="12.15" friendlyPos="1"/>
        <access lane="299403732#0_0" pos="9.90" length="14.59" friendlyPos="1"/>
        <access lane="382754632#1_0" pos="3.31" length="18.67" friendlyPos="1"/>
        <access lane="382754632#2_0" pos="0.00" length="25.25" friendlyPos="1"/>
        <access lane="382754638#0_0" pos="9.93" length="25.50" friendlyPos="1"/>
    </busStop>
    <busStop id="-3497302606" name="南京復興" lane="-196868581_0" startPos="581.88" endPos="781.88" friendlyPos="true">
        <access lane="374427269#0_0" pos="0.00" length="15.65" friendlyPos="1"/>
        <access lane="495214071#2_0" pos="0.00" length="30.58" friendlyPos="1"/>
        <access lane="668836500#1_0" pos="0.00" length="28.11" friendlyPos="1"/>
        <access lane="668836507#2_0" pos="0.00" length="28.72" friendlyPos="1"/>
        <access lane="668836507#3_0" pos="0.00" length="30.18" friendlyPos="1"/>
    </busStop>
    <busStop id="-3497302606@447449" name="南京復興" lane="-195696216_0" startPos="0.00" endPos="131.94" friendlyPos="true">
        <access lane="374427269#0_0" pos="0.00" length="15.65" friendlyPos="1"/>
        <access lane="495214071#2_0" pos="0.00" length="30.58" friendlyPos="1"/>
        <access lane="668836500#1_0" pos="0.00" length="28.11" friendlyPos="1"/>
        <access lane="668836507#2_0" pos="0.00" length="28.72" friendlyPos="1"/>
        <access lane="668836507#3_0" pos="0.00" length="30.18" friendlyPos="1"/>
    </busStop>
    <busStop id="-3497302607" name="中山國中" lane="-195696237_0" startPos="0.00" endPos="99.48" friendlyPos="true">
        <access lane="-50914316#0_0" pos="53.02" length="39.58" friendlyPos="1"/>
        <access lane="264859962#3_0" pos="36.18" length="10.69" friendlyPos="1"/>
        <access lane="401376480#4_0" pos="16.77" length="12.63" friendlyPos="1"/>
        <access lane="50914316#0_0" pos="0.00" length="43.71" friendlyPos="1"/>
        <access lane="827099040#4_0" pos="48.90" length="28.95" friendlyPos="1"/>
    </busStop>
    <busStop id="-3497302608" name="松山機場" lane="-527687889_0" startPos="0.00" endPos="100.00" friendlyPos="true">
        <access lane="450750322#1_0" pos="58.81" length="43.69" friendlyPos="1"/>
        <access lane="450750322#2_0" pos="19.22" length="24.21" friendlyPos="1"/>
        <access lane="50160066#2_0" pos="18.85" length="45.27" friendlyPos="1"/>
        <access lane="667555337#3_0" pos="7.43" length="43.59" friendlyPos="1"/>
        <access lane="667555337#4_0" pos="4.32" length="35.06" friendlyPos="1"/>
    </busStop>
    <busStop id="-3497302608@447449" name="松山機場" lane="-195696218_0" startPos="0.00" endPos="156.15" friendlyPos="true">
        <access lane="450750322#1_0" pos="58.81" length="43.69" friendlyPos="1"/>
        <access lane="450750322#2_0" pos="19.22" length="24.21" friendlyPos="1"/>
        <access lane="50160066#2_0" pos="18.85" length="45.27" friendlyPos="1"/>
        <access lane="667555337#3_0" pos="7.43" length="43.59" friendlyPos="1"/>
        <access lane="667555337#4_0" pos="4.32" length="35.06" friendlyPos="1"/>
    </busStop>
    <busStop id="-3720461300" name="三重派出所 (福德北路)" lane="-105778508#2_0" startPos="5.92" endPos="20.85" friendlyPos="true" lines="225區 225 274"/>
    <busStop id="-3720461313" name="長生街口" lane="-583848147#6_0" startPos="5.25" endPos="20.25" friendlyPos="true" lines="225區 225 274 226"/>
    <busStop id="-373400210" name="中山國中" lane="-195696237_0" startPos="0.00" endPos="99.48" friendlyPos="true">
        <access lane="-50914316#0_0" pos="53.02" length="41.22" friendlyPos="1"/>
        <access lane="264859962#3_0" pos="35.99" length="8.15" friendlyPos="1"/>
        <access lane="401376480#4_0" pos="16.97" length="15.16" friendlyPos="1"/>
        <access lane="50914316#0_0" pos="0.00" length="45.24" friendlyPos="1"/>
        <access lane="827099040#4_0" pos="49.11" length="26.42" friendlyPos="1"/>
    </busStop>
    <busStop id="-3812564391" name="中山國小" lane="-198281393_0" startPos="375.06" endPos="575.06" friendlyPos="true">
        <access lane="313235566#3_0" pos="44.86" length="10.82" friendlyPos="1"/>
        <access lane="506597799#1_0" pos="74.19" length="13.29" friendlyPos="1"/>
        <access lane="52248857#0_0" pos="0.00" length="78.04" friendlyPos="1"/>
        <access lane="742681152_0" pos="73.40" length="26.84" friendlyPos="1"/>
        <access lane="742681153#1_0" pos="52.93" length="25.79" friendlyPos="1"/>
    </busStop>
    <busStop id="-3812564394" name="南京三民" lane="-196868577#0_0" startPos="115.48" endPos="315.48" friendlyPos="true">
        <access lane="265738682#3_0" pos="79.31" length="9.45" friendlyPos="1"/>
        <access lane="310849376#1_0" pos="16.63" length="16.07" friendlyPos="1"/>
        <access lane="466274668#4_0" pos="79.34" length="14.10" friendlyPos="1"/>
        <access lane="759990578#6_0" pos="42.28" length="26.90" friendlyPos="1"/>
        <access lane="810546529#1_0" pos="4.28" length="28.66" friendlyPos="1"/>
    </busStop>
    <busStop id="-3812564397" name="台北小巨蛋" lane="-196868577#0_0" startPos="1407.98" endPos="1586.32" friendlyPos="true">
        <access lane="374427273#2_0" pos="46.57" length="11.12" friendlyPos="1"/>
        <access lane="506359650#1_0" pos="94.43" length="27.99" friendlyPos="1"/>
        <access lane="506359652#3_0" pos="32.93" length="23.69" friendlyPos="1"/>
        <access lane="506359668#1_0" pos="93.37" length="13.61" friendlyPos="1"/>
        <access lane="51268697#6_0" pos="1.64" length="56.60" friendlyPos="1"/>
    </busStop>
    <busStop id="-4066659498" name="建北站" lane="-793234595_0" startPos="0.00" endPos="8.15" friendlyPos="true" lines="復興幹線 688"/>
    <busStop id="-4205229664" name="延平一站(長安)" lane="-287316013#1_0" startPos="38.22" endPos="53.22" friendlyPos="true" lines="12"/>
    <busStop id="-4205229665" name="後車站" lane="-407202572#5_0" startPos="0.00" endPos="12.02" friendlyPos="true" lines="12 282"/>
    <busStop id="-4653351590" name="台北車站" lane="-170432840_0" startPos="2107.84" endPos="2289.64" friendlyPos="true">
        <access lane="-33679832#1_0" pos="225.31" length="109.02" friendlyPos="1"/>
        <access lane="288878925#0_0" pos="0.00" length="198.87" friendlyPos="1"/>
        <access lane="33679832#0_0" pos="0.00" length="111.40" friendlyPos="1"/>
        <access lane="4860359#7_0" pos="118.11" length="215.14" friendlyPos="1"/>
        <access lane="837377226#0_0" pos="0.00" length="225.30" friendlyPos="1"/>
    </busStop>
    <busStop id="-4653351591" name="台北車站" lane="-198163706_0" startPos="2104.31" endPos="2286.08" friendlyPos="true">
        <access lane="-33679832#1_0" pos="225.31" length="116.57" friendlyPos="1"/>
        <access lane="288878925#0_0" pos="0.00" length="202.71" friendlyPos="1"/>
        <access lane="33679832#0_0" pos="0.00" length="118.80" friendlyPos="1"/>
        <access lane="4860359#7_0" pos="118.11" length="218.69" friendlyPos="1"/>
        <access lane="837377226#0_0" pos="0.00" length="229.17" friendlyPos="1"/>
    </busStop>
    <busStop id="-6333316062" name="民權西路" lane="-198281393_0" startPos="1027.62" endPos="1213.35" friendlyPos="true">
        <access lane="299403731#0_0" pos="47.45" length="7.85" friendlyPos="1"/>
        <access lane="378429450_0" pos="0.00" length="62.35" friendlyPos="1"/>
        <access lane="380944751#0_0" pos="0.00" length="75.34" friendlyPos="1"/>
        <access lane="506596678#1_0" pos="54.59" length="19.12" friendlyPos="1"/>
        <access lane="506596678#2_0" pos="0.00" length="64.82" friendlyPos="1"/>
    </busStop>
    <busStop id="-7216196568" name="涼州重慶路口" lane="-312929529#3_0" startPos="17.81" endPos="32.81" friendlyPos="true" lines="274"/>
    <busStop id="-7629997062" name="堤頂大道口" lane="-23766386#3_0" startPos="22.69" endPos="37.69" friendlyPos="true" lines="21"/>
    <busStop id="1166189365" name="捷運中山國中站" lane="401376480#4_0" startPos="41.78" endPos="56.78" friendlyPos="true" lines="685吉林 685 復興幹線 5 63"/>
    <busStop id="1217101754" lane="315886314_0" startPos="4972.93" endPos="5132.45" friendlyPos="true"/>
    <busStop id="1217102308" lane="315886314_0" startPos="2223.73" endPos="2423.73" friendlyPos="true"/>
    <busStop id="1217102313" lane="315886314_0" startPos="2957.32" endPos="3157.32" friendlyPos="true"/>
    <busStop id="1218006902" lane="315886314_0" startPos="887.20" endPos="1087.20" friendlyPos="true">
        <access lane="-485459093#0_0" pos="197.04" length="205.96" friendlyPos="1"/>
        <access lane="-579912015#4_0" pos="0.00" length="59.68" friendlyPos="1"/>
        <access lane="485459093#0_0" pos="0.00" length="207.64" friendlyPos="1"/>
        <access lane="579912015#3_0" pos="306.52" length="55.49" friendlyPos="1"/>
        <access lane="579912031_0" pos="450.82" length="20.03" friendlyPos="1"/>
    </busStop>
    <busStop id="1218007209" name="三民高中" lane="315886314_0" startPos="3921.73" endPos="4121.73" friendlyPos="true"/>
    <busStop id="1223100051" name="中山國小" lane="198281391_0" startPos="639.47" endPos="839.47" friendlyPos="true">
        <access lane="313235566#3_0" pos="44.51" length="2.22" friendlyPos="1"/>
        <access lane="506597799#1_0" pos="74.53" length="21.88" friendlyPos="1"/>
        <access lane="52248857#0_0" pos="0.00" length="75.86" friendlyPos="1"/>
        <access lane="742681152_0" pos="72.96" length="35.42" friendlyPos="1"/>
        <access lane="742681153#1_0" pos="52.93" length="17.31" friendlyPos="1"/>
    </busStop>
    <busStop id="1483501124" name="民權龍江路口" lane="198589912#6_0" startPos="130.60" endPos="140.44" friendlyPos="true" lines="225區 225 967直 967 685吉林 688 285 685 復興幹線 5116 801 松江新生 617 63 民權幹線"/>
    <busStop id="1483501761" name="民權建國路口" lane="506599421#3_0" startPos="0.00" endPos="11.65" friendlyPos="true" lines="225區 225 967直 967 685吉林 688 285 685 復興幹線 5 5116 801 松江新生 617 63 民權幹線"/>
    <busStop id="1483501762" name="行天宮" lane="238707595#1_0" startPos="39.56" endPos="54.56" friendlyPos="true" lines="967直 967 298 復興幹線 676 松江新生 72 5116 643 1840 1550"/>
    <busStop id="1493007672" name="行天宮" lane="198281380_0" startPos="319.72" endPos="519.72" friendlyPos="true" lines="O">
        <access lane="265736010#3_0" pos="64.67" length="11.93" friendlyPos="1"/>
        <access lane="265736010#4_0" pos="0.00" length="35.93" friendlyPos="1"/>
        <access lane="495021759#7_0" pos="13.78" length="22.82" friendlyPos="1"/>
        <access lane="50823651#1_0" pos="34.09" length="39.39" friendlyPos="1"/>
        <access lane="593840517#1_0" pos="90.17" length="10.25" friendlyPos="1"/>
    </busStop>
    <busStop id="1493007755" name="松江南京" lane="198281380_0" startPos="1139.65" endPos="1339.65" friendlyPos="true" lines="O">
        <access lane="232003900#1_0" pos="0.00" length="29.83" friendlyPos="1"/>
        <access lane="494737329_0" pos="3.97" length="33.17" friendlyPos="1"/>
        <access lane="494737330#0_0" pos="1.15" length="28.28" friendlyPos="1"/>
        <access lane="495030817#0_0" pos="0.00" length="34.40" friendlyPos="1"/>
        <access lane="593841520#2_0" pos="84.99" length="34.07" friendlyPos="1"/>
    </busStop>
    <busStop id="1493007755@4250356" name="松江南京" lane="196868581_0" startPos="32.19" endPos="232.19" friendlyPos="true" lines="G">
        <access lane="232003900#1_0" pos="0.00" length="29.83" friendlyPos="1"/>
        <access lane="494737329_0" pos="3.97" length="33.17" friendlyPos="1"/>
        <access lane="494737330#0_0" pos="1.15" length="28.28" friendlyPos="1"/>
        <access lane="495030817#0_0" pos="0.00" length="34.40" friendlyPos="1"/>
        <access lane="593841520#2_0" pos="84.99" length="34.07" friendlyPos="1"/>
    </busStop>
    <busStop id="1577610285" lane="299401470_0" startPos="434.09" endPos="634.09" friendlyPos="true">
        <access lane="-258419780_0" pos="60.66" length="71.16" friendlyPos="1"/>
        <access lane="240133507#0_0" pos="70.82" length="12.68" friendlyPos="1"/>
        <access lane="258419780_0" pos="64.42" length="75.96" friendlyPos="1"/>
        <access lane="50893541#1_0" pos="61.01" length="7.11" friendlyPos="1"/>
        <access lane="579792116#0_0" pos="3.11" length="100.56" friendlyPos="1"/>
    </busStop>
    <busStop id="1632904207" name="七海文化園區" lane="730830606#1_0" startPos="28.82" endPos="43.82" friendlyPos="true"/>
    <busStop id="1632904208" name="忠烈祠" lane="241811763#5_0" startPos="162.70" endPos="177.70" friendlyPos="true"/>
    <busStop id="1681745146" name="大直" lane="195696234_0" startPos="2365.60" endPos="1904.67" friendlyPos="true" lines="BR">
        <access lane="338923676#0_0" pos="18.24" length="8.87" friendlyPos="1"/>
        <access lane="338923676#1_0" pos="0.00" length="0.93" friendlyPos="1"/>
        <access lane="407206572#13_0" pos="64.87" length="16.40" friendlyPos="1"/>
        <access lane="810584621#1_0" pos="3.91" length="7.69" friendlyPos="1"/>
        <access lane="810584621#2_0" pos="0.00" length="5.07" friendlyPos="1"/>
    </busStop>
    <busStop id="1681745146@447449" name="大直" lane="195696227_0" startPos="0.00" endPos="83.97" friendlyPos="true" lines="BR">
        <access lane="338923676#0_0" pos="18.24" length="8.87" friendlyPos="1"/>
        <access lane="338923676#1_0" pos="0.00" length="0.93" friendlyPos="1"/>
        <access lane="407206572#13_0" pos="64.87" length="16.40" friendlyPos="1"/>
        <access lane="810584621#1_0" pos="3.91" length="7.69" friendlyPos="1"/>
        <access lane="810584621#2_0" pos="0.00" length="5.07" friendlyPos="1"/>
    </busStop>
    <busStop id="1705943198" name="啟聰學校" lane="50893508#2_0" startPos="61.18" endPos="76.18" friendlyPos="true"/>
    <busStop id="2051219239" name="民權西路" lane="194618291_0" startPos="0.00" endPos="142.51" friendlyPos="true">
        <access lane="-52248916#0_0" pos="36.51" length="45.11" friendlyPos="1"/>
        <access lane="380944751#0_0" pos="52.46" length="42.82" friendlyPos="1"/>
        <access lane="380944751#1_0" pos="1.87" length="40.83" friendlyPos="1"/>
        <access lane="382754638#1_0" pos="21.79" length="15.08" friendlyPos="1"/>
        <access lane="382754645_0" pos="86.12" length="33.69" friendlyPos="1"/>
    </busStop>
    <busStop id="2051219427" name="雙連" lane="194618343_0" startPos="0.00" endPos="113.73" friendlyPos="true">
        <access lane="199973250#8_0" pos="4.53" length="3.84" friendlyPos="1"/>
        <access lane="279545769_0" pos="0.00" length="18.18" friendlyPos="1"/>
        <access lane="299403734#4_0" pos="0.00" length="20.07" friendlyPos="1"/>
        <access lane="515156282#4_0" pos="10.65" length="8.87" friendlyPos="1"/>
        <access lane="741274797#6_0" pos="4.96" length="14.21" friendlyPos="1"/>
    </busStop>
    <busStop id="2061145789" name="大直" lane="195696225_0" startPos="541.52" endPos="620.99" friendlyPos="true">
        <access lane="338923676#0_0" pos="18.24" length="9.34" friendlyPos="1"/>
        <access lane="338923676#1_0" pos="0.38" length="3.42" friendlyPos="1"/>
        <access lane="407206572#13_0" pos="64.87" length="12.24" friendlyPos="1"/>
        <access lane="810584621#1_0" pos="3.91" length="5.56" friendlyPos="1"/>
        <access lane="810584621#2_0" pos="0.00" length="9.16" friendlyPos="1"/>
    </busStop>
    <busStop id="2061145790" name="大直" lane="195696217_0" startPos="0.00" endPos="86.27" friendlyPos="true">
        <access lane="338923676#0_0" pos="18.24" length="11.43" friendlyPos="1"/>
        <access lane="338923676#1_0" pos="0.00" length="4.72" friendlyPos="1"/>
        <access lane="407206572#13_0" pos="64.87" length="20.43" friendlyPos="1"/>
        <access lane="810584621#1_0" pos="3.91" length="11.60" friendlyPos="1"/>
        <access lane="810584621#2_0" pos="0.09" length="3.11" friendlyPos="1"/>
    </busStop>
    <busStop id="2061146022" name="中山國中" lane="195696239_0" startPos="0.00" endPos="99.81" friendlyPos="true">
        <access lane="-50914316#0_0" pos="53.02" length="38.09" friendlyPos="1"/>
        <access lane="264859962#3_0" pos="36.09" length="13.92" friendlyPos="1"/>
        <access lane="401376480#4_0" pos="16.86" length="9.39" friendlyPos="1"/>