<?xml version="1.0" encoding="UTF-8"?>
<!-- generated on 2020-11-10 21:54:05.616834 by osmWebWizard.py v1_7_0+0000-714814baed
  options: 
-->
<routes xmlns:xsi="http://www.w3.org/2001/XMLSchema-instance" xsi:noNamespaceSchemaLocation="http://sumo.dlr.de/xsd/routes_file.xsd">
    <vType id="pt_bus" vClass="bus"/>
    <vType id="pt_tram" vClass="tram"/>
    <vType id="pt_train" vClass="rail"/>
    <vType id="pt_subway" vClass="rail_urban"/>
    <vType id="pt_light_rail" vClass="rail_urban"/>
    <vType id="pt_monorail" vClass="rail"/>
    <vType id="pt_trolleybus" vClass="bus"/>
    <vType id="pt_aerialway" vClass="bus"/>
    <vType id="pt_ferry" vClass="ship"/>
    <trip id="0_bus_內科圓山:0" type="pt_bus" depart="0" departLane="best" from="326352589#0" to="241536984">
        <stop busStop="2517390810" duration="30"/>
        <stop busStop="-2517390807" duration="30"/>
        <stop busStop="4400929026" duration="30"/>
    </trip>
    <trip id="1_bus_內科圓山:1" type="pt_bus" depart="3" departLane="best" from="241536984" to="-326352589#0">
        <stop busStop="4400929026" duration="30"/>
        <stop busStop="2517390808" duration="30"/>
        <stop busStop="-2517390809" duration="30"/>
    </trip>
    <trip id="2_bus_NH18:0" type="pt_bus" depart="6" departLane="best" from="-244421759#3" to="299291335#4">
        <stop busStop="-2517390809" duration="30"/>
    </trip>
    <trip id="3_bus_NH18:1" type="pt_bus" depart="11" departLane="best" from="732390620#0" to="244421759#0">
        <stop busStop="2517658859" duration="30"/>
        <stop busStop="6858306521" duration="30"/>
        <stop busStop="2713414521" duration="30"/>
        <stop busStop="2703510764" duration="30"/>
        <stop busStop="2703511529" duration="30"/>
        <stop busStop="2686831915" duration="30"/>
        <stop busStop="2183271156" duration="30"/>
        <stop busStop="2506289802" duration="30"/>
        <stop busStop="2506289804" duration="30"/>
        <stop busStop="2657578314" duration="30"/>
        <stop busStop="2657578316" duration="30"/>
        <stop busStop="3230272674" duration="30"/>
        <stop busStop="3230272669" duration="30"/>
        <stop busStop="3230272671" duration="30"/>
        <stop busStop="3230272672" duration="30"/>
        <stop busStop="3177452495" duration="30"/>
    </trip>
    <trip id="4_bus_跳蛙公車:0" type="pt_bus" depart="15" departLane="best" from="326352589#0" to="244421759#0">
        <stop busStop="2517390810" duration="30"/>
    </trip>
    <trip id="5_bus_NH10:0" type="pt_bus" depart="15" departLane="best" from="326352589#0" to="449379870#1">
    </trip>
    <trip id="6_bus_NH10:1" type="pt_bus" depart="17" departLane="best" from="449379853#0" to="-326352589#0">
        <stop busStop="2517390808" duration="30"/>
        <stop busStop="-2517390809" duration="30"/>
    </trip>
    <trip id="7_bus_636:0" type="pt_bus" depart="19" departLane="best" from="407202550#2" to="50893541#1">
        <stop busStop="2528739040" duration="30"/>
        <stop busStop="2631129014" duration="30"/>
        <stop busStop="2631129016" duration="30"/>
        <stop busStop="2631129017" duration="30"/>
        <stop busStop="2631129020" duration="30"/>
        <stop busStop="3881368455" duration="30"/>
        <stop busStop="3881369162" duration="30"/>
        <stop busStop="2517658931" duration="30"/>
        <stop busStop="2517658824" duration="30"/>
        <stop busStop="2713414522" duration="30"/>
        <stop busStop="2713414698" duration="30"/>
    </trip>
    <trip id="8_bus_636:1" type="pt_bus" depart="27" departLane="best" from="240133507#0" to="407202550#2">
        <stop busStop="2713414697" duration="30"/>
        <stop busStop="2713414521" duration="30"/>
        <stop busStop="2702176992" duration="30"/>
        <stop busStop="2702178132" duration="30"/>
        <stop busStop="2442990951" duration="30"/>
        <stop busStop="2528739040" duration="30"/>
    </trip>
    <trip id="9_bus_520:0" type="pt_bus" depart="28" departLane="best" from="759988498#0" to="50893541#1">
        <stop busStop="2509549194" duration="30"/>
        <stop busStop="2509549136" duration="30"/>
        <stop busStop="2703510765" duration="30"/>
        <stop busStop="4838086676" duration="30"/>
        <stop busStop="2713414522" duration="30"/>
        <stop busStop="2713414698" duration="30"/>
    </trip>
    <trip id="10_bus_520:1" type="pt_bus" depart="30" departLane="best" from="240133507#0" to="827108944#0">
        <stop busStop="2713414697" duration="30"/>
        <stop busStop="2713414521" duration="30"/>
        <stop busStop="2703510764" duration="30"/>
        <stop busStop="2703511529" duration="30"/>
        <stop busStop="2460552125" duration="30"/>
    </trip>
    <trip id="11_bus_221:0" type="pt_bus" depart="34" departLane="best" from="407202549" to="310620429#3">
        <stop busStop="3188323178" duration="30"/>
        <stop busStop="2713414521" duration="30"/>
        <stop busStop="2702176992" duration="30"/>
        <stop busStop="2702178132" duration="30"/>
        <stop busStop="2702178682" duration="30"/>
    </trip>
    <trip id="12_bus_225區:0" type="pt_bus" depart="34" departLane="best" from="48740804#0" to="-583848147#1">
        <stop busStop="2657578315" duration="30"/>
        <stop busStop="2657578313" duration="30"/>
        <stop busStop="1483501124" duration="30"/>
        <stop busStop="1483501761" duration="30"/>
        <stop busStop="2506289803" duration="30"/>
        <stop busStop="2685395656" duration="30"/>
        <stop busStop="2703511530" duration="30"/>
        <stop busStop="2703510765" duration="30"/>
        <stop busStop="3188479010" duration="30"/>
        <stop busStop="2713414522" duration="30"/>
        <stop busStop="3720461301" duration="30"/>
        <stop busStop="-3720461313" duration="30"/>
    </trip>
    <trip id="13_bus_225區:1" type="pt_bus" depart="35" departLane="best" from="583848147#0" to="450750322#2">
        <stop busStop="-3720461300" duration="30"/>
        <stop busStop="2713414521" duration="30"/>
        <stop busStop="2703510764" duration="30"/>
        <stop busStop="2703511529" duration="30"/>
        <stop busStop="2686831915" duration="30"/>
        <stop busStop="2183271156" duration="30"/>
        <stop busStop="2506289802" duration="30"/>
        <stop busStop="2506289804" duration="30"/>
        <stop busStop="2657578316" duration="30"/>
        <stop busStop="2663477278" duration="30"/>
    </trip>
    <trip id="14_bus_225:0" type="pt_bus" depart="38" departLane="best" from="583848147#0" to="317406911#8">
        <stop busStop="-3720461300" duration="30"/>
        <stop busStop="2713414521" duration="30"/>
        <stop busStop="2703510764" duration="30"/>
        <stop busStop="2703511529" duration="30"/>
        <stop busStop="2686831915" duration="30"/>
        <stop busStop="2183271156" duration="30"/>
        <stop busStop="2506289802" duration="30"/>
        <stop busStop="2506289804" duration="30"/>
        <stop busStop="2506754602" duration="30"/>
        <stop busStop="2713515916" duration="30"/>
        <stop busStop="2713516585" duration="30"/>
        <stop busStop="2713518382" duration="30"/>
        <stop busStop="2713519426" duration="30"/>
        <stop busStop="925435435" duration="30"/>
        <stop busStop="2713520789" duration="30"/>
        <stop busStop="925435451" duration="30"/>
        <stop busStop="3177452495" duration="30"/>
        <stop busStop="3161349908" duration="30"/>
    </trip>
    <trip id="15_bus_225:1" type="pt_bus" depart="41" departLane="best" from="772891691#1" to="-583848147#1">
        <stop busStop="3419516298" duration="30"/>
        <stop busStop="2713520788" duration="30"/>
        <stop busStop="2713520550" duration="30"/>
        <stop busStop="2713519425" duration="30"/>
        <stop busStop="2713518381" duration="30"/>
        <stop busStop="2663477271" duration="30"/>
        <stop busStop="2663477278" duration="30"/>
        <stop busStop="2657578315" duration="30"/>
        <stop busStop="2657578313" duration="30"/>
        <stop busStop="1483501124" duration="30"/>
        <stop busStop="1483501761" duration="30"/>
        <stop busStop="2506289803" duration="30"/>
        <stop busStop="2685395656" duration="30"/>
        <stop busStop="2703511530" duration="30"/>
        <stop busStop="2703510765" duration="30"/>
        <stop busStop="3188479010" duration="30"/>
        <stop busStop="2713414522" duration="30"/>
        <stop busStop="3720461301" duration="30"/>
        <stop busStop="-3720461313" duration="30"/>
    </trip>
    <trip id="16_bus_274:0" type="pt_bus" depart="42" departLane="best" from="-31051190#6" to="-583848147#1">
        <stop busStop="-2700765836" duration="30"/>
        <stop busStop="-2700763928" duration="30"/>
        <stop busStop="2700761152" duration="30"/>
        <stop busStop="2700760318" duration="30"/>
        <stop busStop="2700756622" duration="30"/>
        <stop busStop="2700754539" duration="30"/>
        <stop busStop="2700753009" duration="30"/>
        <stop busStop="2700750819" duration="30"/>
        <stop busStop="2700749823" duration="30"/>
        <stop busStop="2631129019" duration="30"/>
        <stop busStop="4838087748" duration="30"/>
        <stop busStop="3720461301" duration="30"/>
        <stop busStop="-3720461313" duration="30"/>
    </trip>
    <trip id="17_bus_274:1" type="pt_bus" depart="42" departLane="best" from="583848147#0" to="-244450426#0">
        <stop busStop="-3720461300" duration="30"/>
        <stop busStop="-7216196568" duration="30"/>
        <stop busStop="-2700756623" duration="30"/>
        <stop busStop="-2700757811" duration="30"/>
        <stop busStop="-2700761742" duration="30"/>
        <stop busStop="-3188090049" duration="30"/>
        <stop busStop="-2631129011" duration="30"/>
    </trip>
    <trip id="18_bus_967直:0" type="pt_bus" depart="47" departLane="best" from="49184204#0" to="49164258">
        <stop busStop="2663477270" duration="30"/>
        <stop busStop="2663477301" duration="30"/>
        <stop busStop="2663477271" duration="30"/>
        <stop busStop="3495444317" duration="30"/>
        <stop busStop="2657578315" duration="30"/>
        <stop busStop="2657578313" duration="30"/>
        <stop busStop="1483501124" duration="30"/>
        <stop busStop="1483501761" duration="30"/>
        <stop busStop="1483501762" duration="30"/>
    </trip>
    <trip id="19_bus_967直:1" type="pt_bus" depart="48" departLane="best" from="49164248" to="374427264#0">
        <stop busStop="4961039545" duration="30"/>
        <stop busStop="2506289802" duration="30"/>
        <stop busStop="2506289804" duration="30"/>
        <stop busStop="2657578314" duration="30"/>
        <stop busStop="2657578316" duration="30"/>
        <stop busStop="3495444317" duration="30"/>
        <stop busStop="2657578317" duration="30"/>
        <stop busStop="2657578330" duration="30"/>
        <stop busStop="2410718856" duration="30"/>
    </trip>
    <trip id="20_bus_967:0" type="pt_bus" depart="51" departLane="best" from="49184204#0" to="49164258">
        <stop busStop="2663477270" duration="30"/>
        <stop busStop="2663477301" duration="30"/>
        <stop busStop="2663477271" duration="30"/>
        <stop busStop="3495444317" duration="30"/>
        <stop busStop="2657578315" duration="30"/>
        <stop busStop="2657578313" duration="30"/>
        <stop busStop="1483501124" duration="30"/>
        <stop busStop="1483501761" duration="30"/>
        <stop busStop="1483501762" duration="30"/>
    </trip>
    <trip id="21_bus_967:1" type="pt_bus" depart="52" departLane="best" from="49164248" to="374427264#0">
        <stop busStop="4961039545" duration="30"/>
        <stop busStop="2506289802" duration="30"/>
        <stop busStop="2506289804" duration="30"/>
        <stop busStop="2657578314" duration="30"/>
        <stop busStop="2657578316" duration="30"/>
        <stop busStop="3495444317" duration="30"/>
        <stop busStop="2657578317" duration="30"/>
        <stop busStop="2657578330" duration="30"/>
        <stop busStop="2410718856" duration="30"/>
    </trip>
    <trip id="22_bus_2001:0" type="pt_bus" depart="54" departLane="best" from="49164248" to="5117999#8">
        <stop busStop="2631129024" duration="30"/>
        <stop busStop="2517658859" duration="30"/>
    </trip>
    <trip id="23_bus_292副:0" type="pt_bus" depart="55" departLane="best" from="49184204#0" to="50893541#1">
        <stop busStop="2447087414" duration="30"/>
        <stop busStop="2447073215" duration="30"/>
        <stop busStop="2447073218" duration="30"/>
        <stop busStop="2447066646" duration="30"/>
        <stop busStop="2442990954" duration="30"/>
        <stop busStop="2442990953" duration="30"/>
        <stop busStop="2442990951" duration="30"/>
        <stop busStop="2517658850" duration="30"/>
        <stop busStop="2517658948" duration="30"/>
        <stop busStop="3794154665" duration="30"/>
        <stop busStop="2713414522" duration="30"/>
        <stop busStop="2713414698" duration="30"/>
    </trip>
    <trip id="24_bus_292副:1" type="pt_bus" depart="58" departLane="best" from="240133507#0" to="374427264#0">
        <stop busStop="2713414697" duration="30"/>
        <stop busStop="2517658859" duration="30"/>
        <stop busStop="2517658943" duration="30"/>
        <stop busStop="2442990950" duration="30"/>
        <stop busStop="2442990952" duration="30"/>
        <stop busStop="2442990955" duration="30"/>
        <stop busStop="2447066647" duration="30"/>
        <stop busStop="2447073221" duration="30"/>
        <stop busStop="2447073212" duration="30"/>
        <stop busStop="2447087409" duration="30"/>
        <stop busStop="3156267993" duration="30"/>
    </trip>
    <trip id="25_bus_685吉林:0" type="pt_bus" depart="58" departLane="best" from="254326518#0" to="506316035#1">
        <stop busStop="4082319379" duration="30"/>
        <stop busStop="2657578306" duration="30"/>
        <stop busStop="2657578312" duration="30"/>
        <stop busStop="2657578309" duration="30"/>
        <stop busStop="2183271156" duration="30"/>
        <stop busStop="2506289802" duration="30"/>
        <stop busStop="2506289804" duration="30"/>
        <stop busStop="2506754602" duration="30"/>
        <stop busStop="2179826596" duration="30"/>
        <stop busStop="2365905405" duration="30"/>
    </trip>
    <trip id="26_bus_685吉林:1" type="pt_bus" depart="59" departLane="best" from="296493635#0" to="34992872">
        <stop busStop="2495367461" duration="30"/>
        <stop busStop="2079533635" duration="30"/>
        <stop busStop="2705192600" duration="30"/>
        <stop busStop="1166189365" duration="30"/>
        <stop busStop="1483501124" duration="30"/>
        <stop busStop="1483501761" duration="30"/>
        <stop busStop="2506289803" duration="30"/>
        <stop busStop="-2657578308" duration="30"/>
        <stop busStop="-2657578311" duration="30"/>
        <stop busStop="-2657578307" duration="30"/>
        <stop busStop="4082319380" duration="30"/>
        <stop busStop="2459652486" duration="30"/>
    </trip>
    <trip id="27_bus_21:0" type="pt_bus" depart="60" departLane="best" from="326352589#0" to="241536984">
        <stop busStop="2517390810" duration="30"/>
        <stop busStop="-2517390807" duration="30"/>
        <stop busStop="-7629997062" duration="30"/>
        <stop busStop="7629997060" duration="30"/>
        <stop busStop="4836653431" duration="30"/>
        <stop busStop="7629997059" duration="30"/>
        <stop busStop="2509668582" duration="30"/>
        <stop busStop="2509668572" duration="30"/>
        <stop busStop="2509668576" duration="30"/>
        <stop busStop="2509549129" duration="30"/>
        <stop busStop="2509668574" duration="30"/>
        <stop busStop="4400929026" duration="30"/>
    </trip>
    <trip id="28_bus_21:1" type="pt_bus" depart="65" departLane="best" from="241536984" to="-326352589#0">
        <stop busStop="4400929026" duration="30"/>
        <stop busStop="2509549130" duration="30"/>
        <stop busStop="2509668575" duration="30"/>
        <stop busStop="2509668571" duration="30"/>
        <stop busStop="2509668581" duration="30"/>
        <stop busStop="2509668570" duration="30"/>
        <stop busStop="7629997061" duration="30"/>
        <stop busStop="2517390808" duration="30"/>
        <stop busStop="-2517390809" duration="30"/>
    </trip>
    <trip id="29_bus_967直:2" type="pt_bus" depart="66" departLane="best" from="-31051190#6" to="49164258">
        <stop busStop="2631129014" duration="30"/>
        <stop busStop="2631129016" duration="30"/>
        <stop busStop="2631129017" duration="30"/>
        <stop busStop="2631129020" duration="30"/>
        <stop busStop="2631129022" duration="30"/>
        <stop busStop="2631129023" duration="30"/>
    </trip>
    <trip id="30_bus_966:0" type="pt_bus" depart="71" departLane="best" from="49164248" to="5117999#8">
        <stop busStop="7662035468" duration="30"/>
        <stop busStop="2517658841" duration="30"/>
        <stop busStop="2517658824" duration="30"/>
        <stop busStop="2517658859" duration="30"/>
    </trip>
    <trip id="31_bus_260區:0" type="pt_bus" depart="72" departLane="best" from="241536941" to="515730128">
        <stop busStop="2459652486" duration="30"/>
    </trip>
    <trip id="32_bus_260區:1" type="pt_bus" depart="77" departLane="best" from="241536941" to="515730128">
        <stop busStop="2459652486" duration="30"/>
    </trip>
    <trip id="33_bus_260:0" type="pt_bus" depart="79" departLane="best" from="310620428#0" to="515730128">
        <stop busStop="2702173288" duration="30"/>
        <stop busStop="2509549130" duration="30"/>
        <stop busStop="2459652486" duration="30"/>
    </trip>
    <trip id="34_bus_638:0" type="pt_bus" depart="91" departLane="best" from="506316032#0" to="50893541#1">
        <stop busStop="2365905405" duration="30"/>
        <stop busStop="2447073215" duration="30"/>
        <stop busStop="3778518984" duration="30"/>
        <stop busStop="2925551451" duration="30"/>
        <stop busStop="2063258399" duration="30"/>
        <stop busStop="3188090059" duration="30"/>
        <stop busStop="3188090045" duration="30"/>
        <stop busStop="2509549136" duration="30"/>
        <stop busStop="-2124843045" duration="30"/>
        <stop busStop="2703510765" duration="30"/>
        <stop busStop="4838086676" duration="30"/>
        <stop busStop="2713414522" duration="30"/>
        <stop busStop="2713414698" duration="30"/>
    </trip>
    <trip id="35_bus_638:1" type="pt_bus" depart="92" departLane="best" from="240133507#0" to="506316032#0">
        <stop busStop="2713414697" duration="30"/>
        <stop busStop="2713414521" duration="30"/>
        <stop busStop="2703510764" duration="30"/>
        <stop busStop="-2491474584" duration="30"/>
        <stop busStop="-2124843045" duration="30"/>
        <stop busStop="2124843058" duration="30"/>
        <stop busStop="2441338329" duration="30"/>
        <stop busStop="2080967568" duration="30"/>
        <stop busStop="2188376122" duration="30"/>
        <stop busStop="2188606187" duration="30"/>
        <stop busStop="2506754599" duration="30"/>
        <stop busStop="2179826596" duration="30"/>
        <stop busStop="2365905405" duration="30"/>
    </trip>
    <trip id="36_subway_A:0" type="pt_subway" depart="93" departLane="best" from="170432840" to="170432840">
        <stop busStop="4653351590" duration="30"/>
    </trip>
    <trip id="37_bus_307:0" type="pt_bus" depart="94" departLane="best" from="51423111#0" to="-310677981#0">
        <stop busStop="2442990955" duration="30"/>
        <stop busStop="2447066647" duration="30"/>
        <stop busStop="2447073221" duration="30"/>
        <stop busStop="2447073212" duration="30"/>
        <stop busStop="2447087409" duration="30"/>
        <stop busStop="3156267993" duration="30"/>
        <stop busStop="3156267992" duration="30"/>
        <stop busStop="3156267990" duration="30"/>
        <stop busStop="3186022961" duration="30"/>
    </trip>
    <trip id="38_bus_62:0" type="pt_bus" depart="98" departLane="best" from="312929528#0" to="-312929520">
        <stop busStop="3188323199" duration="30"/>
        <stop busStop="2826082744" duration="30"/>
    </trip>
    <trip id="39_bus_604:0" type="pt_bus" depart="99" departLane="best" from="51423111#0" to="772891691#3">
        <stop busStop="2442990955" duration="30"/>
        <stop busStop="2447066647" duration="30"/>
        <stop busStop="2447073221" duration="30"/>
        <stop busStop="2447073212" duration="30"/>
        <stop busStop="2447087409" duration="30"/>
        <stop busStop="3156267993" duration="30"/>
        <stop busStop="3156267992" duration="30"/>
        <stop busStop="3156267990" duration="30"/>
        <stop busStop="2713524342" duration="30"/>
        <stop busStop="2713522973" duration="30"/>
        <stop busStop="2713522620" duration="30"/>
    </trip>
    <trip id="40_bus_204:0" type="pt_bus" depart="102" departLane="best" from="313675767#0" to="506389484#1">
        <stop busStop="3156267990" duration="30"/>
        <stop busStop="3186022961" duration="30"/>
    </trip>
    <trip id="41_bus_民生:0" type="pt_bus" depart="107" departLane="best" from="264484759#1" to="-51911218#0">
        <stop busStop="3419516298" duration="30"/>
        <stop busStop="2713520788" duration="30"/>
        <stop busStop="2713520550" duration="30"/>
        <stop busStop="2713519425" duration="30"/>
        <stop busStop="2713518381" duration="30"/>
        <stop busStop="2063258416" duration="30"/>
        <stop busStop="2063258453" duration="30"/>
        <stop busStop="2063258353" duration="30"/>
        <stop busStop="2063258368" duration="30"/>
        <stop busStop="2063258399" duration="30"/>
        <stop busStop="3188090059" duration="30"/>
        <stop busStop="3188090045" duration="30"/>
        <stop busStop="2124843046" duration="30"/>
        <stop busStop="3188090058" duration="30"/>
        <stop busStop="3188090787" duration="30"/>
        <stop busStop="2638505683" duration="30"/>
        <stop busStop="2528868387" duration="30"/>
        <stop busStop="2700761152" duration="30"/>
        <stop busStop="3188090770" duration="30"/>
    </trip>
    <trip id="42_bus_復興幹線:0" type="pt_bus" depart="111" departLane="best" from="-793234595" to="506316035#1">
        <stop busStop="-4066659498" duration="30"/>
        <stop busStop="2506289838" duration="30"/>
        <stop busStop="2506289805" duration="30"/>
        <stop busStop="2506289795" duration="30"/>
        <stop busStop="2506289798" duration="30"/>
        <stop busStop="2506289797" duration="30"/>
        <stop busStop="2506754602" duration="30"/>
        <stop busStop="2179826596" duration="30"/>
        <stop busStop="2365905405" duration="30"/>
    </trip>
    <trip id="43_bus_306:0" type="pt_bus" depart="114" departLane="best" from="407202549" to="506389484#1">
        <stop busStop="3188323178" duration="30"/>
        <stop busStop="2631129015" duration="30"/>
        <stop busStop="2631129013" duration="30"/>
        <stop busStop="2528868387" duration="30"/>
        <stop busStop="2528739039" duration="30"/>
        <stop busStop="2442990950" duration="30"/>
        <stop busStop="2442990952" duration="30"/>
        <stop busStop="2442990955" duration="30"/>
        <stop busStop="2447066647" duration="30"/>
        <stop busStop="2447073221" duration="30"/>
        <stop busStop="2447073212" duration="30"/>
        <stop busStop="2447087409" duration="30"/>
        <stop busStop="3156267993" duration="30"/>
        <stop busStop="3156267992" duration="30"/>
        <stop busStop="3156267990" duration="30"/>
        <stop busStop="3186022961" duration="30"/>
    </trip>
    <trip id="44_bus_0東:0" type="pt_bus" depart="114" departLane="best" from="52907067" to="232361466#2">
        <stop busStop="3161349908" duration="30"/>
    </trip>
    <trip id="45_bus_292:0" type="pt_bus" depart="119" departLane="best" from="240133507#0" to="374427264#0">
        <stop busStop="2713414697" duration="30"/>
        <stop busStop="2517658859" duration="30"/>
        <stop busStop="2517658943" duration="30"/>
        <stop busStop="2442990950" duration="30"/>
        <stop busStop="2442990952" duration="30"/>
        <stop busStop="2442990955" duration="30"/>
        <stop busStop="2447066647" duration="30"/>
        <stop busStop="2447073221" duration="30"/>
        <stop busStop="2447073212" duration="30"/>
        <stop busStop="2447087409" duration="30"/>
        <stop busStop="3156267993" duration="30"/>
    </trip>
    <trip id="46_bus_278:0" type="pt_bus" depart="120" departLane="best" from="313675767#0" to="287735325#1">
        <stop busStop="3156267994" duration="30"/>
        <stop busStop="3156267988" duration="30"/>
        <stop busStop="3156268001" duration="30"/>
        <stop busStop="3156267989" duration="30"/>
        <stop busStop="2713522973" duration="30"/>
        <stop busStop="2713522620" duration="30"/>
    </trip>
    <trip id="47_bus_668:0" type="pt_bus" depart="122" departLane="best" from="593841520#0" to="506389484#1">
        <stop busStop="2447073221" duration="30"/>
        <stop busStop="2447073212" duration="30"/>
        <stop busStop="2447087409" duration="30"/>
        <stop busStop="3156267993" duration="30"/>
        <stop busStop="3156267992" duration="30"/>
        <stop busStop="3156267990" duration="30"/>
        <stop busStop="3186022961" duration="30"/>
    </trip>
    <trip id="48_bus_672:0" type="pt_bus" depart="125" departLane="best" from="506359617#3" to="51272317#17">
        <stop busStop="2447073221" duration="30"/>
        <stop busStop="2447073212" duration="30"/>
        <stop busStop="2447087409" duration="30"/>
        <stop busStop="3156267993" duration="30"/>
        <stop busStop="2663477270" duration="30"/>
        <stop busStop="2663477301" duration="30"/>
        <stop busStop="2713518382" duration="30"/>
        <stop busStop="2713519426" duration="30"/>
        <stop busStop="925435435" duration="30"/>
        <stop busStop="2713520789" duration="30"/>
        <stop busStop="2713522621" duration="30"/>
        <stop busStop="2713522976" duration="30"/>
    </trip>
    <trip id="49_bus_208:0" type="pt_bus" depart="126" departLane="best" from="244421767#0" to="-759988496#1">
        <stop busStop="-2509991263" duration="30"/>
    </trip>
    <trip id="50_bus_688:0" type="pt_bus" depart="127" departLane="best" from="-793234595" to="374427264#0">
        <stop busStop="-4066659498" duration="30"/>
        <stop busStop="2657578310" duration="30"/>
        <stop busStop="2657578306" duration="30"/>
        <stop busStop="2657578312" duration="30"/>
        <stop busStop="2657578309" duration="30"/>
        <stop busStop="2183271156" duration="30"/>
        <stop busStop="2506289802" duration="30"/>
        <stop busStop="2506289804" duration="30"/>
        <stop busStop="2657578314" duration="30"/>
        <stop busStop="2657578316" duration="30"/>
        <stop busStop="2657578330" duration="30"/>
        <stop busStop="2410718856" duration="30"/>
    </trip>
    <trip id="51_bus_208:1" type="pt_bus" depart="128" departLane="best" from="51885181#1" to="310085609#1">
        <stop busStop="2509549143" duration="30"/>
        <stop busStop="2509549199" duration="30"/>
        <stop busStop="2509549194" duration="30"/>
        <stop busStop="2509549136" duration="30"/>
        <stop busStop="-2509549126" duration="30"/>
        <stop busStop="-2509549137" duration="30"/>
        <stop busStop="2509549132" duration="30"/>
        <stop busStop="2509668574" duration="30"/>
        <stop busStop="4400929026" duration="30"/>
        <stop busStop="-2509668586" duration="30"/>
        <stop busStop="2509668573" duration="30"/>
        <stop busStop="2509549130" duration="30"/>
        <stop busStop="2509668575" duration="30"/>
        <stop busStop="2509668571" duration="30"/>
        <stop busStop="2509668581" duration="30"/>
        <stop busStop="2509668570" duration="30"/>
        <stop busStop="2509668590" duration="30"/>
        <stop busStop="2509668579" duration="30"/>
        <stop busStop="2509668577" duration="30"/>
        <stop busStop="2509668588" duration="30"/>
    </trip>
    <trip id="52_bus_棕20:0" type="pt_bus" depart="128" departLane="best" from="326352589#0" to="310085609#1">
        <stop busStop="2517390810" duration="30"/>
        <stop busStop="-2517390807" duration="30"/>
        <stop busStop="2517390818" duration="30"/>
        <stop busStop="2517390805" duration="30"/>
        <stop busStop="2517390806" duration="30"/>
        <stop busStop="-2517390869" duration="30"/>
    </trip>
    <trip id="53_bus_棕20:1" type="pt_bus" depart="131" departLane="best" from="244421767#0" to="-326352589#0">
        <stop busStop="-2517390869" duration="30"/>
        <stop busStop="2517390804" duration="30"/>
        <stop busStop="2517390805@3304467" duration="30"/>
        <stop busStop="2517390817" duration="30"/>
    </trip>
    <trip id="54_bus_606:0" type="pt_bus" depart="131" departLane="best" from="254326518#0" to="51289046#3">
        <stop busStop="2460552126" duration="30"/>
        <stop busStop="2460552127" duration="30"/>
        <stop busStop="2460552082" duration="30"/>
        <stop busStop="2460552125" duration="30"/>
        <stop busStop="2460552086" duration="30"/>
        <stop busStop="2460552095" duration="30"/>
        <stop busStop="2460552092" duration="30"/>
    </trip>
    <trip id="55_bus_204:1" type="pt_bus" depart="132" departLane="best" from="454329104#0" to="232361466#2">
        <stop busStop="3079655520" duration="30"/>
        <stop busStop="2517658798" duration="30"/>
        <stop busStop="3156267991" duration="30"/>
    </trip>