<?xml version="1.0" encoding="UTF-8"?>

<!-- generated on 12/04/20 23:27:29 by Eclipse SUMO netconvert Version 1.7.0
<configuration xmlns:xsi="http://www.w3.org/2001/XMLSchema-instance" xsi:noNamespaceSchemaLocation="http://sumo.dlr.de/xsd/netconvertConfiguration.xsd">

    <input>
        <type-files value="D:\SUMO\data\typemap\osmNetconvert.typ.xml"/>
        <osm-files value="osm_bbox.osm.xml"/>
    </input>

    <output>
        <output-file value="osm.net.xml"/>
        <output.street-names value="true"/>
        <output.original-names value="true"/>
    </output>

    <projection>
        <proj.utm value="true"/>
    </projection>

    <processing>
        <geometry.remove value="true"/>
        <roundabouts.guess value="true"/>
    </processing>

    <tls_building>
        <tls.discard-simple value="true"/>
        <tls.join value="true"/>
        <tls.guess-signals value="true"/>
        <tls.default-type value="actuated"/>
    </tls_building>

    <ramp_guessing>
        <ramps.guess value="true"/>
    </ramp_guessing>

    <junctions>
        <junctions.join value="true"/>
        <junctions.corner-detail value="5"/>
    </junctions>

    <report>
        <verbose value="true"/>
        <aggregate-warnings value="5"/>
    </report>

</configuration>
-->

<net version="1.6" junctionCornerDetail="5" limitTurnSpeed="5.50" xmlns:xsi="http://www.w3.org/2001/XMLSchema-instance" xsi:noNamespaceSchemaLocation="http://sumo.dlr.de/xsd/net_file.xsd">

    <location netOffset="-390301.73,-5819313.79" convBoundary="0.00,0.00,2319.98,2056.56" origBoundary="13.372213,52.511850,13.417649,52.531772" projParameter="+proj=utm +zone=33 +ellps=WGS84 +datum=WGS84 +units=m +no_defs"/>

    <type id="highway.bridleway" priority="1" numLanes="1" speed="2.78" allow="pedestrian" oneway="1" width="2.00"/>
    <type id="highway.bus_guideway" priority="1" numLanes="1" speed="27.78" allow="bus" oneway="1"/>
    <type id="highway.cycleway" priority="1" numLanes="1" speed="8.33" allow="bicycle" oneway="0" width="1.00"/>
    <type id="highway.footway" priority="1" numLanes="1" speed="2.78" allow="pedestrian" oneway="1" width="2.00"/>
    <type id="highway.ford" priority="1" numLanes="1" speed="2.78" allow="army" oneway="0"/>
    <type id="highway.living_street" priority="2" numLanes="1" speed="2.78" disallow="tram rail_urban rail rail_electric rail_fast ship" oneway="0"/>
    <type id="highway.motorway" priority="14" numLanes="2" speed="39.44" allow="private emergency authority army vip passenger hov taxi bus coach delivery truck trailer motorcycle evehicle custom1 custom2" oneway="1"/>
    <type id="highway.motorway_link" priority="9" numLanes="1" speed="22.22" allow="private emergency authority army vip passenger hov taxi bus coach delivery truck trailer motorcycle evehicle custom1 custom2" oneway="1"/>
    <type id="highway.path" priority="1" numLanes="1" speed="2.78" allow="pedestrian bicycle" oneway="1" width="2.00"/>
    <type id="highway.pedestrian" priority="1" numLanes="1" speed="2.78" allow="pedestrian" oneway="1" width="2.00"/>
    <type id="highway.primary" priority="12" numLanes="2" speed="27.78" disallow="tram rail_urban rail rail_electric rail_fast ship" oneway="0"/>
    <type id="highway.primary_link" priority="7" numLanes="1" speed="22.22" disallow="tram rail_urban rail rail_electric rail_fast ship" oneway="0"/>
    <type id="highway.raceway" priority="15" numLanes="2" speed="83.33" allow="vip" oneway="0"/>
    <type id="highway.residential" priority="3" numLanes="1" speed="13.89" disallow="tram rail_urban rail rail_electric rail_fast ship" oneway="0"/>
    <type id="highway.secondary" priority="11" numLanes="1" speed="27.78" disallow="tram rail_urban rail rail_electric rail_fast ship" oneway="0"/>
    <type id="highway.secondary_link" priority="6" numLanes="1" speed="22.22" disallow="tram rail_urban rail rail_electric rail_fast ship" oneway="0"/>
    <type id="highway.service" priority="1" numLanes="1" speed="5.56" allow="pedestrian delivery bicycle" oneway="0"/>
    <type id="highway.stairs" priority="1" numLanes="1" speed="1.39" allow="pedestrian" oneway="1" width="2.00"/>
    <type id="highway.step" priority="1" numLanes="1" speed="1.39" allow="pedestrian" oneway="1" width="2.00"/>
    <type id="highway.steps" priority="1" numLanes="1" speed="1.39" allow="pedestrian" oneway="1" width="2.00"/>
    <type id="highway.tertiary" priority="10" numLanes="1" speed="22.22" disallow="tram rail_urban rail rail_electric rail_fast ship" oneway="0"/>
    <type id="highway.tertiary_link" priority="5" numLanes="1" speed="22.22" disallow="tram rail_urban rail rail_electric rail_fast ship" oneway="0"/>
    <type id="highway.track" priority="1" numLanes="1" speed="5.56" allow="pedestrian motorcycle moped bicycle" oneway="0"/>
    <type id="highway.trunk" priority="13" numLanes="2" speed="27.78" disallow="pedestrian bicycle tram rail_urban rail rail_electric rail_fast ship" oneway="0"/>
    <type id="highway.trunk_link" priority="8" numLanes="1" speed="22.22" disallow="pedestrian bicycle tram rail_urban rail rail_electric rail_fast ship" oneway="0"/>
    <type id="highway.unclassified" priority="4" numLanes="1" speed="13.89" disallow="tram rail_urban rail rail_electric rail_fast ship" oneway="0"/>
    <type id="highway.unsurfaced" priority="1" numLanes="1" speed="8.33" disallow="tram rail_urban rail rail_electric rail_fast ship" oneway="0"/>
    <type id="railway.highspeed" priority="21" numLanes="1" speed="69.44" allow="rail_fast" oneway="1"/>
    <type id="railway.light_rail" priority="19" numLanes="1" speed="27.78" allow="rail_urban" oneway="1"/>
    <type id="railway.preserved" priority="16" numLanes="1" speed="27.78" allow="rail" oneway="1"/>
    <type id="railway.rail" priority="20" numLanes="1" speed="44.44" allow="rail" oneway="1"/>
    <type id="railway.subway" priority="18" numLanes="1" speed="27.78" allow="rail_urban" oneway="1"/>
    <type id="railway.tram" priority="17" numLanes="1" speed="13.89" allow="tram" oneway="1"/>

    <edge id=":1075544310_0" function="internal">
        <lane id=":1075544310_0_0" index="0" disallow="tram rail_urban rail rail_electric rail_fast ship" speed="3.65" length="4.67" shape="753.42,1072.07 753.80,1070.68 754.43,1070.04 755.31,1070.16 756.45,1071.04"/>
    </edge>
    <edge id=":1157325170_0" function="internal">
        <lane id=":1157325170_0_0" index="0" allow="tram" speed="13.89" length="5.44" shape="1394.38,849.70 1397.65,845.34"/>
    </edge>
    <edge id=":1157325174_0" function="internal">
        <lane id=":1157325174_0_0" index="0" disallow="tram rail_urban rail rail_electric rail_fast ship" speed="13.89" length="4.99" shape="1408.49,852.47 1405.45,856.40"/>
        <lane id=":1157325174_0_1" index="1" disallow="tram rail_urban rail rail_electric rail_fast ship" speed="13.89" length="4.99" shape="1405.98,850.49 1402.91,854.46"/>
    </edge>
    <edge id=":1206481791_0" function="internal">
        <lane id=":1206481791_0_0" index="0" allow="pedestrian delivery bicycle" speed="6.95" length="11.63" shape="368.40,299.05 365.32,299.34 363.13,300.54 361.10,302.35 358.55,304.47"/>
    </edge>
    <edge id=":1206481791_1" function="internal">
        <lane id=":1206481791_1_0" index="0" disallow="tram rail_urban rail rail_electric rail_fast ship" speed="8.33" length="12.82" shape="368.40,299.05 355.62,297.97"/>
    </edge>
    <edge id=":1206481791_2" function="internal">
        <lane id=":1206481791_2_0" index="0" disallow="tram rail_urban rail rail_electric rail_fast ship" speed="3.65" length="2.34" shape="368.40,299.05 367.26,298.17 366.91,297.34"/>
    </edge>
    <edge id=":1206481791_9" function="internal">
        <lane id=":1206481791_9_0" index="0" disallow="tram rail_urban rail rail_electric rail_fast ship" speed="3.65" length="2.34" shape="366.91,297.34 367.37,296.57 368.62,295.86"/>
    </edge>
    <edge id=":1206481791_3" function="internal">
        <lane id=":1206481791_3_0" index="0" disallow="tram rail_urban rail rail_electric rail_fast ship" speed="8.33" length="12.77" shape="355.90,294.78 368.62,295.86"/>
    </edge>
    <edge id=":1206481791_4" function="internal">
        <lane id=":1206481791_4_0" index="0" allow="pedestrian delivery bicycle" speed="6.95" length="7.37" shape="355.90,294.78 361.47,295.86 362.75,296.97"/>
    </edge>
    <edge id=":1206481791_5" function="internal">
        <lane id=":1206481791_5_0" index="0" disallow="tram rail_urban rail rail_electric rail_fast ship" speed="3.65" length="2.34" shape="355.90,294.78 357.02,295.68 357.35,296.52"/>
    </edge>
    <edge id=":1206481791_10" function="internal">
        <lane id=":1206481791_10_0" index="0" allow="pedestrian delivery bicycle" speed="6.95" length="10.04" shape="362.75,296.97 363.77,297.84 362.79,300.71 358.55,304.47"/>
    </edge>
    <edge id=":1206481791_11" function="internal">
        <lane id=":1206481791_11_0" index="0" disallow="tram rail_urban rail rail_electric rail_fast ship" speed="3.65" length="2.34" shape="357.35,296.52 356.88,297.28 355.62,297.97"/>
    </edge>
    <edge id=":1206481791_6" function="internal">
        <lane id=":1206481791_6_0" index="0" allow="pedestrian delivery bicycle" speed="4.71" length="7.00" shape="356.68,301.87 358.39,300.35 358.78,299.20 357.86,298.40 355.62,297.97"/>
    </edge>
    <edge id=":1206481791_7" function="internal">
        <lane id=":1206481791_7_0" index="0" allow="pedestrian delivery bicycle" speed="6.95" length="13.69" shape="356.68,301.87 359.56,299.65 362.31,297.64 365.23,296.24 368.62,295.86"/>
    </edge>
    <edge id=":1206481791_8" function="internal">
        <lane id=":1206481791_8_0" index="0" allow="pedestrian delivery bicycle" speed="3.65" length="4.67" shape="356.68,301.87 358.13,301.82 358.92,302.24 359.06,303.12 358.55,304.47"/>
    </edge>
    <edge id=":1206481808_0" function="internal">
        <lane id=":1206481808_0_0" index="0" allow="pedestrian delivery bicycle" speed="6.95" length="9.33" shape="325.76,301.18 323.74,298.44 321.98,296.46 320.47,295.23 319.22,294.76"/>
    </edge>
    <edge id=":1206481808_1" function="internal">
        <lane id=":1206481808_1_0" index="0" allow="pedestrian delivery bicycle" speed="6.76" length="15.02" shape="325.76,301.18 323.58,297.02 323.69,294.20 326.08,292.72 330.77,292.57"/>
    </edge>
    <edge id=":1206481808_2" function="internal">
        <lane id=":1206481808_2_0" index="0" allow="pedestrian delivery bicycle" speed="3.65" length="4.67" shape="325.76,301.18 325.73,299.73 326.17,298.95 327.05,298.83 328.39,299.36"/>
    </edge>
    <edge id=":1206481808_3" function="internal">
        <lane id=":1206481808_3_0" index="0" allow="pedestrian delivery bicycle" speed="4.66" length="6.29" shape="330.49,295.75 328.53,295.82 327.52,296.44 327.48,297.62 328.39,299.36"/>
    </edge>
    <edge id=":1206481808_4" function="internal">
        <lane id=":1206481808_4_0" index="0" disallow="tram rail_urban rail rail_electric rail_fast ship" speed="8.33" length="11.31" shape="330.49,295.75 319.22,294.76"/>
    </edge>
    <edge id=":1206481808_5" function="internal">
        <lane id=":1206481808_5_0" index="0" disallow="tram rail_urban rail rail_electric rail_fast ship" speed="3.65" length="2.34" shape="330.49,295.75 329.37,294.85 329.04,294.02"/>
    </edge>
    <edge id=":1206481808_9" function="internal">
        <lane id=":1206481808_9_0" index="0" disallow="tram rail_urban rail rail_electric rail_fast ship" speed="3.65" length="2.34" shape="329.04,294.02 329.51,293.26 330.77,292.57"/>
    </edge>
    <edge id=":1206481808_6" function="internal">
        <lane id=":1206481808_6_0" index="0" disallow="tram rail_urban rail rail_electric rail_fast ship" speed="8.33" length="11.31" shape="319.50,291.57 330.77,292.57"/>
    </edge>
    <edge id=":1206481808_7" function="internal">
        <lane id=":1206481808_7_0" index="0" allow="pedestrian delivery bicycle" speed="6.95" length="4.37" shape="319.50,291.57 321.46,292.18 323.36,293.52"/>
    </edge>
    <edge id=":1206481808_8" function="internal">
        <lane id=":1206481808_8_0" index="0" disallow="tram rail_urban rail rail_electric rail_fast ship" speed="3.65" length="2.34" shape="319.50,291.57 320.63,292.47 320.96,293.31"/>
    </edge>
    <edge id=":1206481808_10" function="internal">
        <lane id=":1206481808_10_0" index="0" allow="pedestrian delivery bicycle" speed="6.95" length="7.73" shape="323.36,293.52 323.60,293.68 325.91,296.08 328.39,299.36"/>
    </edge>
    <edge id=":1206481808_11" function="internal">
        <lane id=":1206481808_11_0" index="0" disallow="tram rail_urban rail rail_electric rail_fast ship" speed="3.65" length="2.34" shape="320.96,293.31 320.49,294.07 319.22,294.76"/>
    </edge>
    <edge id=":1210473765_0" function="internal">
        <lane id=":1210473765_0_0" index="0" allow="pedestrian delivery bicycle" speed="3.93" length="2.16" shape="646.93,1172.78 646.65,1172.28 646.28,1171.94 645.80,1171.78 645.22,1171.78"/>
    </edge>
    <edge id=":1210473765_1" function="internal">
        <lane id=":1210473765_1_0" index="0" allow="pedestrian delivery bicycle" speed="6.13" length="6.48" shape="644.78,1168.61 646.51,1168.60 647.94,1169.10 649.07,1170.10 649.91,1171.61"/>
    </edge>
    <edge id=":1210473765_2" function="internal">
        <lane id=":1210473765_2_0" index="0" disallow="tram rail_urban rail rail_electric rail_fast ship" speed="3.65" length="4.67" shape="644.78,1168.61 646.08,1169.24 646.59,1169.98 646.30,1170.82 645.22,1171.78"/>
    </edge>
    <edge id=":1210473819_0" function="internal">
        <lane id=":1210473819_0_0" index="0" allow="pedestrian delivery bicycle" speed="3.65" length="4.67" shape="686.57,1278.74 686.20,1280.14 685.57,1280.77 684.68,1280.65 683.54,1279.77"/>
    </edge>
    <edge id=":1217651538_0" function="internal">
        <lane id=":1217651538_0_0" index="0" allow="pedestrian delivery bicycle" speed="5.17" length="5.16" shape="771.55,886.03 770.28,885.32 769.10,885.14 768.00,885.51 767.00,886.42"/>
    </edge>
    <edge id=":1217651538_1" function="internal">
        <lane id=":1217651538_1_0" index="0" allow="pedestrian delivery bicycle" speed="6.87" length="10.36" shape="771.55,886.03 769.56,884.03 768.72,881.87 769.01,879.54 770.45,877.06"/>
    </edge>
    <edge id=":1217651538_2" function="internal">
        <lane id=":1217651538_2_0" index="0" allow="pedestrian delivery bicycle" speed="3.65" length="4.67" shape="771.55,886.03 771.07,884.67 771.23,883.79 772.03,883.39 773.47,883.47"/>
    </edge>
    <edge id=":1217651538_3" function="internal">
        <lane id=":1217651538_3_0" index="0" allow="pedestrian delivery bicycle" speed="5.03" length="5.06" shape="772.92,879.09 772.22,880.30 772.08,881.44 772.50,882.49 773.47,883.47"/>
    </edge>
    <edge id=":1217651538_4" function="internal">
        <lane id=":1217651538_4_0" index="0" disallow="tram rail_urban rail rail_electric rail_fast ship" speed="8.33" length="9.42" shape="772.92,879.09 767.00,886.42"/>
    </edge>
    <edge id=":1217651538_5" function="internal">
        <lane id=":1217651538_5_0" index="0" disallow="tram rail_urban rail rail_electric rail_fast ship" speed="3.65" length="2.34" shape="772.92,879.09 771.54,879.51 770.67,879.31"/>
    </edge>
    <edge id=":1217651538_9" function="internal">
        <lane id=":1217651538_9_0" index="0" disallow="tram rail_urban rail rail_electric rail_fast ship" speed="3.65" length="2.34" shape="770.67,879.31 770.31,878.49 770.45,877.06"/>
    </edge>
    <edge id=":1217651538_6" function="internal">
        <lane id=":1217651538_6_0" index="0" disallow="tram rail_urban rail rail_electric rail_fast ship" speed="8.33" length="9.45" shape="764.52,884.40 770.45,877.06"/>
    </edge>
    <edge id=":1217651538_7" function="internal">
        <lane id=":1217651538_7_0" index="0" allow="pedestrian delivery bicycle" speed="6.95" length="5.02" shape="764.52,884.40 766.52,882.56 768.68,881.79"/>
    </edge>
    <edge id=":1217651538_8" function="internal">
        <lane id=":1217651538_8_0" index="0" disallow="tram rail_urban rail rail_electric rail_fast ship" speed="3.65" length="2.34" shape="764.52,884.40 765.89,883.97 766.77,884.17"/>
    </edge>
    <edge id=":1217651538_10" function="internal">
        <lane id=":1217651538_10_0" index="0" allow="pedestrian delivery bicycle" speed="6.95" length="5.17" shape="768.68,881.79 771.00,882.10 773.47,883.47"/>
    </edge>
    <edge id=":1217651538_11" function="internal">
        <lane id=":1217651538_11_0" index="0" disallow="tram rail_urban rail rail_electric rail_fast ship" speed="3.65" length="2.34" shape="766.77,884.17 767.14,884.98 767.00,886.42"/>
    </edge>
    <edge id=":1264074481_0" function="internal">
        <lane id=":1264074481_0_0" index="0" disallow="tram rail_urban rail rail_electric rail_fast ship" speed="13.89" length="6.09" shape="1785.64,427.13 1789.20,431.98"/>
        <lane id=":1264074481_0_1" index="1" disallow="tram rail_urban rail rail_electric rail_fast ship" speed="13.89" length="6.09" shape="1783.03,429.00 1786.64,433.91"/>
        <lane id=":1264074481_0_2" index="2" disallow="tram rail_urban rail rail_electric rail_fast ship" speed="13.89" length="6.09" shape="1780.43,430.86 1784.08,435.83"/>
    </edge>
    <edge id=":1264074481_3" function="internal">
        <lane id=":1264074481_3_0" index="0" allow="pedestrian delivery bicycle" speed="6.08" length="7.75" shape="1779.74,435.21 1782.06,433.71 1783.99,433.00 1785.51,433.06 1786.64,433.91"/>
    </edge>
    <edge id=":1264074481_4" function="internal">
        <lane id=":1264074481_4_0" index="0" allow="pedestrian delivery bicycle" speed="5.04" length="5.00" shape="1779.74,435.21 1780.94,434.55 1782.07,434.44 1783.11,434.86 1784.08,435.83"/>
    </edge>
    <edge id=":1264074482_0" function="internal">
        <lane id=":1264074482_0_0" index="0" disallow="tram rail_urban rail rail_electric rail_fast ship" speed="13.89" length="5.99" shape="1757.31,455.82 1753.78,451.21"/>
        <lane id=":1264074482_0_1" index="1" disallow="tram rail_urban rail rail_electric rail_fast ship" speed="13.89" length="5.99" shape="1759.88,453.91 1756.29,449.23"/>
        <lane id=":1264074482_0_2" index="2" disallow="tram rail_urban rail rail_electric rail_fast ship" speed="13.89" length="5.99" shape="1762.44,452.00 1758.81,447.25"/>
        <lane id=":1264074482_0_3" index="3" disallow="tram rail_urban rail rail_electric rail_fast ship" speed="13.89" length="5.99" shape="1765.01,450.09 1761.32,445.27"/>
        <lane id=":1264074482_0_4" index="4" disallow="tram rail_urban rail rail_electric rail_fast ship" speed="13.89" length="5.99" shape="1767.58,448.18 1763.84,443.29"/>
    </edge>
    <edge id=":1264074482_5" function="internal">
        <lane id=":1264074482_5_0" index="0" allow="pedestrian delivery bicycle" speed="5.04" length="5.00" shape="1767.58,448.18 1766.93,446.98 1766.81,445.86 1767.24,444.81 1768.21,443.85"/>
    </edge>
    <edge id=":1275468904_0" function="internal">
        <lane id=":1275468904_0_0" index="0" disallow="tram rail_urban rail rail_electric rail_fast ship" speed="13.89" length="4.96" shape="1619.33,1100.37 1617.38,1095.81"/>
    </edge>
    <edge id=":1275468904_1" function="internal">
        <lane id=":1275468904_1_0" index="0" disallow="tram rail_urban rail rail_electric rail_fast ship" speed="3.65" length="2.34" shape="1619.33,1100.37 1619.60,1098.96 1620.18,1098.28"/>
    </edge>
    <edge id=":1275468904_4" function="internal">
        <lane id=":1275468904_4_0" index="0" disallow="tram rail_urban rail rail_electric rail_fast ship" speed="3.65" length="2.34" shape="1620.18,1098.28 1621.07,1098.33 1622.28,1099.13"/>
    </edge>
    <edge id=":1275468904_2" function="internal">
        <lane id=":1275468904_2_0" index="0" disallow="tram rail_urban rail rail_electric rail_fast ship" speed="13.89" length="4.99" shape="1620.32,1094.54 1622.28,1099.13"/>
    </edge>
    <edge id=":1275468904_3" function="internal">
        <lane id=":1275468904_3_0" index="0" disallow="tram rail_urban rail rail_electric rail_fast ship" speed="3.65" length="2.34" shape="1620.32,1094.54 1620.06,1095.96 1619.49,1096.65"/>
    </edge>
    <edge id=":1275468904_5" function="internal">
        <lane id=":1275468904_5_0" index="0" disallow="tram rail_urban rail rail_electric rail_fast ship" speed="3.65" length="2.34" shape="1619.49,1096.65 1618.59,1096.60 1617.38,1095.81"/>
    </edge>
    <edge id=":1371317063_0" function="internal">
        <lane id=":1371317063_0_0" index="0" disallow="tram rail_urban rail rail_electric rail_fast ship" speed="8.33" length="5.29" shape="916.36,672.70 911.80,670.00"/>
    </edge>
    <edge id=":1371317063_1" function="internal">
        <lane id=":1371317063_1_0" index="0" disallow="tram rail_urban rail rail_electric rail_fast ship" speed="3.65" length="4.67" shape="916.36,672.70 915.72,671.41 915.77,670.52 916.52,670.02 917.95,669.93"/>
    </edge>
    <edge id=":1371317063_2" function="internal">
        <lane id=":1371317063_2_0" index="0" disallow="tram rail_urban rail rail_electric rail_fast ship" speed="8.33" length="5.25" shape="913.44,667.26 917.95,669.93"/>
    </edge>
    <edge id=":1371317063_3" function="internal">
        <lane id=":1371317063_3_0" index="0" disallow="tram rail_urban rail rail_electric rail_fast ship" speed="3.65" length="4.67" shape="913.44,667.26 914.06,668.56 913.99,669.45 913.24,669.93 911.80,670.00"/>
    </edge>
    <edge id=":1449754450_0" function="internal">
        <lane id=":1449754450_0_0" index="0" allow="pedestrian delivery bicycle" speed="4.93" length="5.13" shape="858.24,681.71 856.86,681.37 855.74,681.57 854.89,682.32 854.30,683.62"/>
    </edge>
    <edge id=":1449754450_1" function="internal">
        <lane id=":1449754450_1_0" index="0" allow="pedestrian delivery bicycle" speed="5.56" length="9.44" shape="858.24,681.71 849.51,678.14"/>
    </edge>
    <edge id=":1449754450_2" function="internal">
        <lane id=":1449754450_2_0" index="0" allow="pedestrian delivery bicycle" speed="3.65" length="4.67" shape="858.24,681.71 857.44,680.52 857.37,679.63 858.04,679.04 859.46,678.75"/>
    </edge>
    <edge id=":1449754450_3" function="internal">
        <lane id=":1449754450_3_0" index="0" allow="pedestrian delivery bicycle" speed="5.56" length="9.44" shape="850.72,675.18 859.46,678.75"/>
    </edge>
    <edge id=":1449754450_4" function="internal">
        <lane id=":1449754450_4_0" index="0" allow="pedestrian delivery bicycle" speed="5.56" length="10.22" shape="850.72,675.18 852.96,676.53 854.31,678.39 854.75,680.75 854.30,683.62"/>
    </edge>
    <edge id=":1449754450_5" function="internal">
        <lane id=":1449754450_5_0" index="0" allow="pedestrian delivery bicycle" speed="3.65" length="4.67" shape="850.72,675.18 851.53,676.38 851.59,677.27 850.92,677.86 849.51,678.14"/>
    </edge>
    <edge id=":1449754450_6" function="internal">
        <lane id=":1449754450_6_0" index="0" allow="pedestrian delivery bicycle" speed="5.41" length="5.45" shape="851.22,682.73 851.49,681.14 851.30,679.85 850.64,678.85 849.51,678.14"/>
    </edge>
    <edge id=":1449754450_7" function="internal">
        <lane id=":1449754450_7_0" index="0" allow="pedestrian delivery bicycle" speed="5.56" length="10.70" shape="851.22,682.73 852.45,680.02 854.23,678.45 856.57,678.03 859.46,678.75"/>
    </edge>
    <edge id=":1449754450_8" function="internal">
        <lane id=":1449754450_8_0" index="0" allow="pedestrian delivery bicycle" speed="3.65" length="4.67" shape="851.22,682.73 852.33,681.80 853.21,681.64 853.86,682.25 854.30,683.62"/>
    </edge>
    <edge id=":1457124706_0" function="internal">
        <lane id=":1457124706_0_0" index="0" allow="pedestrian delivery bicycle" speed="3.65" length="4.67" shape="838.42,628.13 839.33,627.02 840.17,626.70 840.92,627.18 841.60,628.45"/>
    </edge>
    <edge id=":1457124739_0" function="internal">
        <lane id=":1457124739_0_0" index="0" allow="pedestrian delivery bicycle" speed="5.56" length="8.81" shape="838.76,673.75 836.73,672.60 835.35,671.05 834.63,669.11 834.55,666.77"/>
    </edge>
    <edge id=":1457124739_1" function="internal">
        <lane id=":1457124739_1_0" index="0" allow="pedestrian delivery bicycle" speed="3.65" length="4.67" shape="838.76,673.75 837.95,672.56 837.88,671.67 838.55,671.08 839.97,670.79"/>
    </edge>
    <edge id=":1457124739_2" function="internal">
        <lane id=":1457124739_2_0" index="0" allow="pedestrian delivery bicycle" speed="5.44" length="4.67" shape="837.74,667.09 837.78,668.33 838.16,669.36 838.89,670.18 839.97,670.79"/>
    </edge>
    <edge id=":1457124739_3" function="internal">
        <lane id=":1457124739_3_0" index="0" allow="pedestrian delivery bicycle" speed="3.65" length="4.67" shape="837.74,667.09 836.82,668.21 835.99,668.53 835.23,668.05 834.55,666.77"/>
    </edge>
    <edge id=":1457124764_0" function="internal">
        <lane id=":1457124764_0_0" index="0" allow="pedestrian delivery bicycle" speed="3.65" length="4.67" shape="880.12,687.19 880.93,688.38 880.99,689.28 880.32,689.86 878.91,690.15"/>
    </edge>
    <edge id=":1472911019_0" function="internal">
        <lane id=":1472911019_0_0" index="0" disallow="tram rail_urban rail rail_electric rail_fast ship" speed="13.89" length="4.99" shape="1273.59,620.20 1269.32,617.60"/>
        <lane id=":1472911019_0_1" index="1" disallow="tram rail_urban rail rail_electric rail_fast ship" speed="13.89" length="4.99" shape="1275.25,617.46 1270.99,614.87"/>
    </edge>
    <edge id=":1473258656_0" function="internal">
        <lane id=":1473258656_0_0" index="0" allow="pedestrian delivery bicycle" speed="4.17" length="5.46" shape="1053.86,757.18 1052.64,756.67 1051.44,756.70 1050.26,757.29 1049.11,758.42"/>
    </edge>
    <edge id=":1473258656_1" function="internal">
        <lane id=":1473258656_1_0" index="0" disallow="tram rail_urban rail rail_electric rail_fast ship" speed="2.78" length="9.44" shape="1053.86,757.18 1045.92,752.08"/>
    </edge>
    <edge id=":1473258656_2" function="internal">
        <lane id=":1473258656_2_0" index="0" disallow="tram rail_urban rail rail_electric rail_fast ship" speed="2.78" length="2.34" shape="1053.86,757.18 1053.29,755.86 1053.38,754.97"/>
    </edge>
    <edge id=":1473258656_9" function="internal">
        <lane id=":1473258656_9_0" index="0" disallow="tram rail_urban rail rail_electric rail_fast ship" speed="2.78" length="2.34" shape="1053.38,754.97 1054.15,754.52 1055.59,754.49"/>
    </edge>
    <edge id=":1473258656_3" function="internal">
        <lane id=":1473258656_3_0" index="0" disallow="tram rail_urban rail rail_electric rail_fast ship" speed="2.78" length="9.44" shape="1047.65,749.39 1055.59,754.49"/>
    </edge>
    <edge id=":1473258656_4" function="internal">
        <lane id=":1473258656_4_0" index="0" allow="pedestrian delivery bicycle" speed="4.17" length="5.17" shape="1047.65,749.39 1049.90,751.34 1050.82,753.33"/>
    </edge>
    <edge id=":1473258656_5" function="internal">
        <lane id=":1473258656_5_0" index="0" disallow="tram rail_urban rail rail_electric rail_fast ship" speed="2.78" length="2.34" shape="1047.65,749.39 1048.23,750.71 1048.13,751.60"/>
    </edge>
    <edge id=":1473258656_10" function="internal">
        <lane id=":1473258656_10_0" index="0" allow="pedestrian delivery bicycle" speed="4.17" length="5.55" shape="1050.82,753.33 1050.90,753.50 1050.63,755.86 1049.11,758.42"/>
    </edge>
    <edge id=":1473258656_11" function="internal">
        <lane id=":1473258656_11_0" index="0" disallow="tram rail_urban rail rail_electric rail_fast ship" speed="2.78" length="2.34" shape="1048.13,751.60 1047.36,752.06 1045.92,752.08"/>
    </edge>
    <edge id=":1473258656_6" function="internal">
        <lane id=":1473258656_6_0" index="0" allow="pedestrian delivery bicycle" speed="4.17" length="5.13" shape="1046.62,756.41 1047.35,755.18 1047.48,754.05 1047.00,753.02 1045.92,752.08"/>
    </edge>
    <edge id=":1473258656_7" function="internal">
        <lane id=":1473258656_7_0" index="0" allow="pedestrian delivery bicycle" speed="4.17" length="10.22" shape="1046.62,756.41 1048.71,754.39 1050.91,753.40 1053.20,753.43 1055.59,754.49"/>
    </edge>
    <edge id=":1473258656_8" function="internal">
        <lane id=":1473258656_8_0" index="0" allow="pedestrian delivery bicycle" speed="3.65" length="4.67" shape="1046.62,756.41 1048.00,755.98 1048.87,756.17 1049.24,756.99 1049.11,758.42"/>
    </edge>
    <edge id=":1473258657_0" function="internal">
        <lane id=":1473258657_0_0" index="0" allow="pedestrian bicycle" speed="2.78" length="5.01" width="2.00" shape="1035.37,755.96 1039.54,758.72"/>
    </edge>
    <edge id=":1473258657_1" function="internal">
        <lane id=":1473258657_1_0" index="0" allow="pedestrian bicycle" speed="2.78" length="4.12" width="2.00" shape="1035.94,759.42 1036.75,758.61 1037.63,758.23 1038.55,758.26 1039.54,758.72"/>
    </edge>
    <edge id=":1473258660_0" function="internal">
        <lane id=":1473258660_0_0" index="0" allow="pedestrian bicycle" speed="4.17" length="4.58" width="2.00" shape="1047.29,760.73 1046.78,761.75 1046.79,762.73 1047.32,763.66 1048.38,764.55"/>
    </edge>
    <edge id=":1473258660_1" function="internal">
        <lane id=":1473258660_1_0" index="0" allow="pedestrian delivery bicycle" speed="5.56" length="5.39" shape="1047.29,760.73 1044.06,765.05"/>
    </edge>
    <edge id=":1473258660_2" function="internal">
        <lane id=":1473258660_2_0" index="0" allow="pedestrian delivery bicycle" speed="3.65" length="2.34" shape="1047.29,760.73 1045.93,761.21 1045.05,761.06"/>
    </edge>
    <edge id=":1473258660_9" function="internal">
        <lane id=":1473258660_9_0" index="0" allow="pedestrian delivery bicycle" speed="3.65" length="2.34" shape="1045.05,761.06 1044.65,760.26 1044.73,758.82"/>
    </edge>
    <edge id=":1473258660_3" function="internal">