<?xml version="1.0" encoding="UTF-8"?>

<!-- generated on 12/04/20 23:27:31 by Eclipse SUMO duarouter Version 1.7.0
<configuration xmlns:xsi="http://www.w3.org/2001/XMLSchema-instance" xsi:noNamespaceSchemaLocation="http://sumo.dlr.de/xsd/duarouterConfiguration.xsd">

    <input>
        <net-file value="D:\github\sumo-learning\2020-12-04-23-27-19\osm.net.xml"/>
        <route-files value="D:\github\sumo-learning\2020-12-04-23-27-19\osm.passenger.trips.xml"/>
    </input>

    <output>
        <output-file value="D:\github\sumo-learning\2020-12-04-23-27-19\osm.passenger.trips.xml.tmp"/>
        <write-trips value="true"/>
    </output>

    <time>
        <begin value="0"/>
        <end value="1000"/>
    </time>

    <report>
        <no-warnings value="true"/>
        <ignore-errors value="true"/>
        <no-step-log value="true"/>
    </report>

</configuration>
-->

<routes xmlns:xsi="http://www.w3.org/2001/XMLSchema-instance" xsi:noNamespaceSchemaLocation="http://sumo.dlr.de/xsd/routes_file.xsd">
    <vType id="veh_passenger" vClass="passenger"/>
    <trip id="veh0" type="veh_passenger" depart="0.00" departLane="best" from="-755551646#1" to="-6227658#0"/>
    <trip id="veh1" type="veh_passenger" depart="2.08" departLane="best" departSpeed="max" from="43159545#0" to="415280722"/>
    <trip id="veh2" type="veh_passenger" depart="4.16" departLane="best" from="606078071#3" to="-234463931#5"/>
    <trip id="veh3" type="veh_passenger" depart="6.25" departLane="best" from="168942727#2" to="-158023913#2"/>
    <trip id="veh4" type="veh_passenger" depart="8.33" departLane="best" departSpeed="max" from="-4613293" to="23813206#1"/>
    <trip id="veh5" type="veh_passenger" depart="10.41" departLane="best" from="-168940071#1" to="-4612968#0"/>
    <trip id="veh6" type="veh_passenger" depart="12.49" departLane="best" departSpeed="max" from="309479676" to="23851930"/>
    <trip id="veh7" type="veh_passenger" depart="14.57" departLane="best" from="-461526153" to="25294729#1"/>
    <trip id="veh8" type="veh_passenger" depart="16.66" departLane="best" from="46140376#0" to="-111833185"/>
    <trip id="veh10" type="veh_passenger" depart="20.82" departLane="best" from="120675240#0" to="-36892597"/>
    <trip id="veh11" type="veh_passenger" depart="22.90" departLane="best" from="819027709#0" to="169999355#0"/>
    <trip id="veh12" type="veh_passenger" depart="24.98" departLane="best" from="-23813206#0" to="-24242882#0"/>
    <trip id="veh13" type="veh_passenger" depart="27.07" departLane="best" departSpeed="max" from="523630405#0" to="289966097"/>
    <trip id="veh14" type="veh_passenger" depart="29.15" departLane="best" from="4613292#0" to="4402228"/>
    <trip id="veh15" type="veh_passenger" depart="31.23" departLane="best" from="234463931#6" to="83517332#2"/>
    <trip id="veh16" type="veh_passenger" depart="33.31" departLane="best" departSpeed="max" from="139877309" to="23851930"/>
    <trip id="veh17" type="veh_passenger" depart="35.39" departLane="best" from="492340367#0" to="289966097"/>
    <trip id="veh18" type="veh_passenger" depart="37.48" departLane="best" from="54048862#3" to="24914992#1"/>
    <trip id="veh19" type="veh_passenger" depart="39.56" departLane="best" departSpeed="max" from="342968607#0" to="-168940071#1"/>
    <trip id="veh21" type="veh_passenger" depart="43.72" departLane="best" from="-234463928#0" to="-66071379#0"/>
    <trip id="veh22" type="veh_passenger" depart="45.81" departLane="best" departSpeed="max" from="-23813206#2" to="136571494#5"/>
    <trip id="veh23" type="veh_passenger" depart="47.89" departLane="best" departSpeed="max" from="309479676" to="188386313#0"/>
    <trip id="veh24" type="veh_passenger" depart="49.97" departLane="best" departSpeed="max" from="139877309" to="-492340367#0"/>
    <trip id="veh25" type="veh_passenger" depart="52.05" departLane="best" departSpeed="max" from="-437325048#1" to="19002363#1"/>
    <trip id="veh26" type="veh_passenger" depart="54.13" departLane="best" from="840860363#0" to="31313667#1"/>
    <trip id="veh27" type="veh_passenger" depart="56.22" departLane="best" from="24242882#0" to="43231842#3"/>
    <trip id="veh28" type="veh_passenger" depart="58.30" departLane="best" departSpeed="max" from="523630405#0" to="4611706#0"/>
    <trip id="veh30" type="veh_passenger" depart="62.46" departLane="best" departSpeed="max" from="11549897" to="120675240#3"/>
    <trip id="veh31" type="veh_passenger" depart="64.54" departLane="best" departSpeed="max" from="-4613293" to="72157174#1"/>
    <trip id="veh32" type="veh_passenger" depart="66.63" departLane="best" from="60333311#1" to="169195795#0"/>
    <trip id="veh33" type="veh_passenger" depart="68.71" departLane="best" departSpeed="max" from="309479676" to="190447768#1"/>
    <trip id="veh34" type="veh_passenger" depart="70.79" departLane="best" departSpeed="max" from="6227658#0" to="202156994#0"/>
    <trip id="veh35" type="veh_passenger" depart="72.87" departLane="best" from="-66071366#1" to="-755551646#0"/>
    <trip id="veh36" type="veh_passenger" depart="74.95" departLane="best" departSpeed="max" from="24243052#0" to="-874528353#0"/>
    <trip id="veh37" type="veh_passenger" depart="77.04" departLane="best" from="243854725#4" to="60333311#2"/>
    <trip id="veh38" type="veh_passenger" depart="79.12" departLane="best" from="156364570#1" to="-6227658#0"/>
    <trip id="veh39" type="veh_passenger" depart="81.20" departLane="best" from="84960597#0" to="23813206#2"/>
    <trip id="veh40" type="veh_passenger" depart="83.28" departLane="best" from="-23809670#2" to="-168942727#0"/>
    <trip id="veh41" type="veh_passenger" depart="85.36" departLane="best" from="-24243101" to="289966097"/>
    <trip id="veh42" type="veh_passenger" depart="87.45" departLane="best" from="4611696#4" to="195401017#5"/>
    <trip id="veh43" type="veh_passenger" depart="89.53" departLane="best" departSpeed="max" from="-202156991#2" to="19002363#3"/>
    <trip id="veh44" type="veh_passenger" depart="91.61" departLane="best" from="840860363#1" to="23851930"/>
    <trip id="veh45" type="veh_passenger" depart="93.69" departLane="best" from="831694400" to="51167934#4"/>
    <trip id="veh46" type="veh_passenger" depart="95.77" departLane="best" from="-136571494#3" to="437325054#2"/>
    <trip id="veh47" type="veh_passenger" depart="97.86" departLane="best" from="339201217#1" to="23851930"/>
    <trip id="veh48" type="veh_passenger" depart="99.94" departLane="best" from="-66071370" to="31313667#2"/>
    <trip id="veh49" type="veh_passenger" depart="102.02" departLane="best" from="-24243107#1" to="195401017#5"/>
    <trip id="veh50" type="veh_passenger" depart="104.10" departLane="best" from="171826985#1" to="819027709#0"/>
    <trip id="veh51" type="veh_passenger" depart="106.18" departLane="best" from="60333311#1" to="11103418"/>
    <trip id="veh52" type="veh_passenger" depart="108.27" departLane="best" from="202156994#0" to="-437325047#2"/>
    <trip id="veh53" type="veh_passenger" depart="110.35" departLane="best" departSpeed="max" from="6227658#0" to="534588621#0"/>
    <trip id="veh54" type="veh_passenger" depart="112.43" departLane="best" departSpeed="max" from="111833185" to="30721662#3"/>
    <trip id="veh55" type="veh_passenger" depart="114.51" departLane="best" from="28016312#0" to="-36892597"/>
    <trip id="veh56" type="veh_passenger" depart="116.59" departLane="best" from="454285423#1" to="23851930"/>
    <trip id="veh57" type="veh_passenger" depart="118.68" departLane="best" from="4610472#1" to="23851930"/>
    <trip id="veh58" type="veh_passenger" depart="120.76" departLane="best" from="-11483007#2" to="169195795#5"/>
    <trip id="veh59" type="veh_passenger" depart="122.84" departLane="best" from="-156364570#3" to="6227658#2"/>
    <trip id="veh60" type="veh_passenger" depart="124.92" departLane="best" from="60333311#2" to="465376240#0"/>
    <trip id="veh61" type="veh_passenger" depart="127.01" departLane="best" departSpeed="max" from="11549897" to="-19002363#9"/>
    <trip id="veh62" type="veh_passenger" depart="129.09" departLane="best" from="-234463931#5" to="23121445#4"/>
    <trip id="veh63" type="veh_passenger" depart="131.17" departLane="best" departSpeed="max" from="-202156991#2" to="4610607"/>
    <trip id="veh64" type="veh_passenger" depart="133.25" departLane="best" from="4610351#0" to="-25294729#0"/>
    <trip id="veh65" type="veh_passenger" depart="135.33" departLane="best" from="195397561#5" to="23851930"/>
    <trip id="veh66" type="veh_passenger" depart="137.42" departLane="best" from="-66071366#1" to="54048862#0"/>
    <trip id="veh67" type="veh_passenger" depart="139.50" departLane="best" from="168942727#3" to="-534588621#0"/>
    <trip id="veh68" type="veh_passenger" depart="141.58" departLane="best" from="23755950#2" to="4402228"/>
    <trip id="veh69" type="veh_passenger" depart="143.66" departLane="best" departSpeed="max" from="-4611713" to="168942727#2"/>
    <trip id="veh70" type="veh_passenger" depart="145.74" departLane="best" from="840860363#1" to="339201217#1"/>
    <trip id="veh72" type="veh_passenger" depart="149.91" departLane="best" departSpeed="max" from="-25294729#1" to="-6227658#0"/>
    <trip id="veh73" type="veh_passenger" depart="151.99" departLane="best" departSpeed="max" from="11549897" to="25294729#1"/>
    <trip id="veh75" type="veh_passenger" depart="156.15" departLane="best" departSpeed="max" from="-202156991#2" to="30721660#1"/>
    <trip id="veh77" type="veh_passenger" depart="160.32" departLane="best" departSpeed="max" from="-505475201" to="35578576#1"/>
    <trip id="veh78" type="veh_passenger" depart="162.40" departLane="best" departSpeed="max" from="-4613293" to="-28251222#0"/>
    <trip id="veh80" type="veh_passenger" depart="166.56" departLane="best" from="195397541#1" to="4611713"/>
    <trip id="veh81" type="veh_passenger" depart="168.65" departLane="best" from="4613292#0" to="-4610472#0"/>
    <trip id="veh82" type="veh_passenger" depart="170.73" departLane="best" from="168942727#3" to="202157002#2"/>
    <trip id="veh83" type="veh_passenger" depart="172.81" departLane="best" from="43156728#2" to="370359204#2"/>
    <trip id="veh84" type="veh_passenger" depart="174.89" departLane="best" from="83517336#0" to="-24242882#1"/>
    <trip id="veh85" type="veh_passenger" depart="176.97" departLane="best" departSpeed="max" from="158023913#0" to="171423001#2"/>
    <trip id="veh86" type="veh_passenger" depart="179.06" departLane="best" from="54048862#3" to="-755551646#0"/>
    <trip id="veh87" type="veh_passenger" depart="181.14" departLane="best" from="-4610472#2" to="202156991#2"/>
    <trip id="veh88" type="veh_passenger" depart="183.22" departLane="best" from="168942727#2" to="137630045"/>
    <trip id="veh89" type="veh_passenger" depart="185.30" departLane="best" departSpeed="max" from="-51167934#4" to="61584187#2"/>
    <trip id="veh90" type="veh_passenger" depart="187.38" departLane="best" from="169195795#8" to="51167934#4"/>
    <trip id="veh91" type="veh_passenger" depart="189.47" departLane="best" from="23851922#1" to="-168942727#3"/>
    <trip id="veh92" type="veh_passenger" depart="191.55" departLane="best" from="874528353#0" to="4773029#1"/>
    <trip id="veh93" type="veh_passenger" depart="193.63" departLane="best" departSpeed="max" from="523630405#0" to="-43159545#0"/>
    <trip id="veh94" type="veh_passenger" depart="195.71" departLane="best" from="195411604" to="-55741054"/>
    <trip id="veh95" type="veh_passenger" depart="197.79" departLane="best" departSpeed="max" from="158023913#0" to="-194069450#0"/>
    <trip id="veh96" type="veh_passenger" depart="199.88" departLane="best" departSpeed="max" from="139877309" to="840860363#1"/>
    <trip id="veh97" type="veh_passenger" depart="201.96" departLane="best" from="171826985#3" to="195401017#5"/>
    <trip id="veh98" type="veh_passenger" depart="204.04" departLane="best" from="819027709#0" to="874528353#1"/>
    <trip id="veh99" type="veh_passenger" depart="206.12" departLane="best" from="24241797#3" to="437325054#2"/>
    <trip id="veh100" type="veh_passenger" depart="208.20" departLane="best" from="-43231842#2" to="168940071#0"/>
    <trip id="veh101" type="veh_passenger" depart="210.29" departLane="best" from="831659093#1" to="24993933#1"/>
    <trip id="veh102" type="veh_passenger" depart="212.37" departLane="best" from="23809678#1" to="4610472#1"/>
    <trip id="veh103" type="veh_passenger" depart="214.45" departLane="best" from="-195397561#3" to="25294729#0"/>
    <trip id="veh104" type="veh_passenger" depart="216.53" departLane="best" from="-437325047#2" to="82649618"/>
    <trip id="veh105" type="veh_passenger" depart="218.62" departLane="best" from="-234463928#0" to="-454285423#3"/>
    <trip id="veh106" type="veh_passenger" depart="220.70" departLane="best" departSpeed="max" from="24993933#0" to="4067932#1"/>
    <trip id="veh107" type="veh_passenger" depart="222.78" departLane="best" from="-492340367#0" to="-24993933#0"/>
    <trip id="veh108" type="veh_passenger" depart="224.86" departLane="best" from="606078071#0" to="-755551646#0"/>
    <trip id="veh109" type="veh_passenger" depart="226.94" departLane="best" departSpeed="max" from="24993933#0" to="289966097"/>
    <trip id="veh110" type="veh_passenger" depart="229.03" departLane="best" from="168940071#2" to="25294728"/>
    <trip id="veh111" type="veh_passenger" depart="231.11" departLane="best" from="23013165#2" to="66071379#1"/>
    <trip id="veh112" type="veh_passenger" depart="233.19" departLane="best" departSpeed="max" from="-4611713" to="437325054#2"/>
    <trip id="veh113" type="veh_passenger" depart="235.27" departLane="best" departSpeed="max" from="-505475201" to="190447768#1"/>
    <trip id="veh114" type="veh_passenger" depart="237.35" departLane="best" from="31313667#1" to="168940071#3"/>
    <trip id="veh115" type="veh_passenger" depart="239.44" departLane="best" departSpeed="max" from="11549897" to="4610479#0"/>
    <trip id="veh116" type="veh_passenger" depart="241.52" departLane="best" from="-202817674#3" to="202156994#0"/>
    <trip id="veh117" type="veh_passenger" depart="243.60" departLane="best" from="84960597#1" to="874528353#1"/>
    <trip id="veh118" type="veh_passenger" depart="245.68" departLane="best" from="-225400578#1" to="-534588621#1"/>
    <trip id="veh119" type="veh_passenger" depart="247.76" departLane="best" from="-66071366#1" to="66071373#1"/>
    <trip id="veh120" type="veh_passenger" depart="249.85" departLane="best" from="60333311#2" to="54048862#3"/>
    <trip id="veh121" type="veh_passenger" depart="251.93" departLane="best" departSpeed="max" from="139877309" to="-36892597"/>
    <trip id="veh122" type="veh_passenger" depart="254.01" departLane="best" departSpeed="max" from="523630405#0" to="437325048#0"/>
    <trip id="veh123" type="veh_passenger" depart="256.09" departLane="best" from="28251222#1" to="84960595"/>
    <trip id="veh124" type="veh_passenger" depart="258.17" departLane="best" departSpeed="max" from="309479676" to="-111833185"/>
    <trip id="veh125" type="veh_passenger" depart="260.26" departLane="best" from="4773029#0" to="168940071#2"/>
    <trip id="veh126" type="veh_passenger" depart="262.34" departLane="best" departSpeed="max" from="309479676" to="68647306#5"/>
    <trip id="veh127" type="veh_passenger" depart="264.42" departLane="best" from="-31313667#1" to="-243854725#4"/>
    <trip id="veh128" type="veh_passenger" depart="266.50" departLane="best" from="-24242882#1" to="23851930"/>
    <trip id="veh129" type="veh_passenger" depart="268.58" departLane="best" departSpeed="max" from="36892597" to="-461526153"/>
    <trip id="veh130" type="veh_passenger" depart="270.67" departLane="best" departSpeed="max" from="309479676" to="11103418"/>
    <trip id="veh131" type="veh_passenger" depart="272.75" departLane="best" departSpeed="max" from="196850609#0" to="606078066#0"/>
    <trip id="veh132" type="veh_passenger" depart="274.83" departLane="best" departSpeed="max" from="523630405#0" to="-23809670#3"/>
    <trip id="veh133" type="veh_passenger" depart="276.91" departLane="best" from="168942727#3" to="136571494#4"/>
    <trip id="veh134" type="veh_passenger" depart="278.99" departLane="best" from="-122820534#0" to="4611696#4"/>
    <trip id="veh135" type="veh_passenger" depart="281.08" departLane="best" departSpeed="max" from="309479676" to="-84960597#1"/>
    <trip id="veh136" type="veh_passenger" depart="283.16" departLane="best" from="43230886" to="23851930"/>
    <trip id="veh137" type="veh_passenger" depart="285.24" departLane="best" from="169195795#1" to="-11483007#2"/>
    <trip id="veh138" type="veh_passenger" depart="287.32" departLane="best" from="61584187#2" to="23851930"/>
    <trip id="veh139" type="veh_passenger" depart="289.40" departLane="best" departSpeed="max" from="523630405#0" to="251884680"/>
    <trip id="veh140" type="veh_passenger" depart="291.49" departLane="best" from="-370359204#1" to="-24993933#4"/>
    <trip id="veh141" type="veh_passenger" depart="293.57" departLane="best" departSpeed="max" from="11549897" to="60333311#2"/>
    <trip id="veh142" type="veh_passenger" depart="295.65" departLane="best" from="4611698#1" to="51167934#4"/>
    <trip id="veh143" type="veh_passenger" depart="297.73" departLane="best" from="61583424#0" to="-51167934#1"/>
    <trip id="veh144" type="veh_passenger" depart="299.82" departLane="best" from="4610476#2" to="541763974"/>
    <trip id="veh145" type="veh_passenger" depart="301.90" departLane="best" departSpeed="max" from="158023913#0" to="289966097"/>
    <trip id="veh146" type="veh_passenger" depart="303.98" departLane="best" from="541763974" to="83517336#3"/>
    <trip id="veh147" type="veh_passenger" depart="306.06" departLane="best" from="46140382" to="54048863"/>
    <trip id="veh148" type="veh_passenger" depart="308.14" departLane="best" from="-168940071#0" to="4610362#0"/>
    <trip id="veh149" type="veh_passenger" depart="310.23" departLane="best" departSpeed="max" from="11549897" to="66071366#1"/>
    <trip id="veh150" type="veh_passenger" depart="312.31" departLane="best" from="4612968#0" to="51167934#4"/>
    <trip id="veh151" type="veh_passenger" depart="314.39" departLane="best" from="46140382" to="120675240#0"/>
    <trip id="veh152" type="veh_passenger" depart="316.47" departLane="best" from="4611693#1" to="-243854725#2"/>
    <trip id="veh153" type="veh_passenger" depart="318.55" departLane="best" from="60333309#0" to="51167934#1"/>
    <trip id="veh154" type="veh_passenger" depart="320.64" departLane="best" from="-474362271" to="4613308#3"/>
    <trip id="veh155" type="veh_passenger" depart="322.72" departLane="best" from="19002357#1" to="168940071#3"/>
    <trip id="veh156" type="veh_passenger" depart="324.80" departLane="best" from="4611698#1" to="-62363401"/>
    <trip id="veh157" type="veh_passenger" depart="326.88" departLane="best" departSpeed="max" from="11549897" to="51167934#4"/>
    <trip id="veh158" type="veh_passenger" depart="328.96" departLane="best" from="831659093#0" to="137630045"/>
    <trip id="veh159" type="veh_passenger" depart="331.05" departLane="best" from="83517332#1" to="23851930"/>
    <trip id="veh160" type="veh_passenger" depart="333.13" departLane="best" from="751602168" to="-243854725#4"/>
    <trip id="veh161" type="veh_passenger" depart="335.21" departLane="best" from="831694400" to="-437325047#2"/>
    <trip id="veh162" type="veh_passenger" depart="337.29" departLane="best" from="82649618" to="11483007#0"/>
    <trip id="veh163" type="veh_passenger" depart="339.37" departLane="best" from="-24242882#3" to="195401017#5"/>
    <trip id="veh164" type="veh_passenger" depart="341.46" departLane="best" from="415280722" to="169195795#0"/>
    <trip id="veh165" type="veh_passenger" depart="343.54" departLane="best" departSpeed="max" from="139877309" to="24914992#1"/>
    <trip id="veh166" type="veh_passenger" depart="345.62" departLane="best" from="23755950#2" to="437325054#2"/>
    <trip id="veh167" type="veh_passenger" depart="347.70" departLane="best" from="43231842#0" to="35578576#2"/>
    <trip id="veh168" type="veh_passenger" depart="349.78" departLane="best" departSpeed="max" from="139877309" to="-202156991#0"/>
    <trip id="veh169" type="veh_passenger" depart="351.87" departLane="best" departSpeed="max" from="309479676" to="169195795#8"/>
    <trip id="veh170" type="veh_passenger" depart="353.95" departLane="best" departSpeed="max" from="11549897" to="4790825#1"/>
    <trip id="veh171" type="veh_passenger" depart="356.03" departLane="best" departSpeed="max" from="36892597" to="168940071#3"/>
    <trip id="veh172" type="veh_passenger" depart="358.11" departLane="best" departSpeed="max" from="11549897" to="195401013#2"/>
    <trip id="veh173" type="veh_passenger" depart="360.19" departLane="best" departSpeed="max" from="158023913#0" to="168937986#4"/>
    <trip id="veh174" type="veh_passenger" depart="362.28" departLane="best" departSpeed="max" from="-25294729#1" to="195401017#5"/>
    <trip id="veh175" type="veh_passenger" depart="364.36" departLane="best" from="755551646#2" to="415280722"/>
    <trip id="veh176" type="veh_passenger" depart="366.44" departLane="best" from="61584187#1" to="289966097"/>
    <trip id="veh177" type="veh_passenger" depart="368.52" departLane="best" from="11483007#0" to="23851930"/>
    <trip id="veh178" type="veh_passenger" depart="370.60" departLane="best" from="-11483007#2" to="156364566#1"/>
    <trip id="veh179" type="veh_passenger" depart="372.69" departLane="best" from="169195795#4" to="24993933#2"/>
    <trip id="veh180" type="veh_passenger" depart="374.77" departLane="best" departSpeed="max" from="309479676" to="202156995#1"/>
    <trip id="veh181" type="veh_passenger" depart="376.85" departLane="best" from="169195795#8" to="-55741054"/>
    <trip id="veh183" type="veh_passenger" depart="381.02" departLane="best" from="4611698#1" to="-43159545#0"/>
    <trip id="veh184" type="veh_passenger" depart="383.10" departLane="best" departSpeed="max" from="309479676" to="169195795#9"/>
    <trip id="veh185" type="veh_passenger" depart="385.18" departLane="best" from="4773029#1" to="4610476#3"/>
    <trip id="veh186" type="veh_passenger" depart="387.26" departLane="best" from="31313667#2" to="-6227658#0"/>
    <trip id="veh187" type="veh_passenger" depart="389.34" departLane="best" departSpeed="max" from="-4611713" to="-156364553#0"/>
    <trip id="veh188" type="veh_passenger" depart="391.43" departLane="best" departSpeed="max" from="-505475201" to="22972454"/>
    <trip id="veh189" type="veh_passenger" depart="393.51" departLane="best" departSpeed="max" from="523630405#0" to="-202817674#3"/>
    <trip id="veh190" type="veh_passenger" depart="395.59" departLane="best" from="-4611706#0" to="437325048#0"/>
    <trip id="veh191" type="veh_passenger" depart="397.67" departLane="best" departSpeed="max" from="196850609#0" to="-755551646#0"/>
    <trip id="veh192" type="veh_passenger" depart="399.75" departLane="best" departSpeed="max" from="309479676" to="-111833185"/>
    <trip id="veh193" type="veh_passenger" depart="401.84" departLane="best" from="4402228" to="4611696#1"/>
    <trip id="veh194" type="veh_passenger" depart="403.92" departLane="best" from="-24242882#1" to="195401017#5"/>
    <trip id="veh195" type="veh_passenger" depart="406.00" departLane="best" departSpeed="max" from="-437325054#2" to="82649618"/>
    <trip id="veh196" type="veh_passenger" depart="408.08" departLane="best" from="22972454" to="-168942727#3"/>
    <trip id="veh197" type="veh_passenger" depart="410.16" departLane="best" departSpeed="max" from="-51167934#4" to="4790825#1"/>
    <trip id="veh198" type="veh_passenger" depart="412.25" departLane="best" from="171826985#3" to="4613293"/>
    <trip id="veh199" type="veh_passenger" depart="414.33" departLane="best" departSpeed="max" from="309479676" to="84960597#0"/>
    <trip id="veh200" type="veh_passenger" depart="416.41" departLane="best" departSpeed="max" from="24993933#0" to="755551646#2"/>
    <trip id="veh201" type="veh_passenger" depart="418.49" departLane="best" departSpeed="max" from="36892597" to="23813206#0"/>
    <trip id="veh202" type="veh_passenger" depart="420.57" departLane="best" from="492340367#1" to="23851930"/>
    <trip id="veh203" type="veh_passenger" depart="422.66" departLane="best" from="61583423#1" to="4610362#8"/>
    <trip id="veh204" type="veh_passenger" depart="424.74" departLane="best" from="195397561#2" to="-831860725#2"/>
    <trip id="veh205" type="veh_passenger" depart="426.82" departLane="best" from="-51167934#3" to="30721662#2"/>
    <trip id="veh206" type="veh_passenger" depart="428.90" departLane="best" from="4610351#0" to="23851930"/>
    <trip id="veh207" type="veh_passenger" depart="430.98" departLane="best" departSpeed="max" from="309479676" to="136571494#1"/>
    <trip id="veh208" type="veh_passenger" depart="433.07" departLane="best" from="-23121445#3" to="156364556#1"/>
    <trip id="veh209" type="veh_passenger" depart="435.15" departLane="best" from="-751595929#0" to="169195795#4"/>
    <trip id="veh210" type="veh_passenger" depart="437.23" departLane="best" from="23809670#1" to="-328920970"/>
    <trip id="veh212" type="veh_passenger" depart="441.39" departLane="best" departSpeed="max" from="342968607#0" to="-195397541#1"/>
    <trip id="veh213" type="veh_passenger" depart="443.48" departLane="best" departSpeed="max" from="158023913#0" to="23851930"/>
    <trip id="veh214" type="veh_passenger" depart="445.56" departLane="best" from="168937986#4" to="-4773029#1"/>
    <trip id="veh215" type="veh_passenger" depart="447.64" departLane="best" from="168942727#0" to="606078065"/>
    <trip id="veh216" type="veh_passenger" depart="449.72" departLane="best" from="243854725#4" to="437325048#0"/>
    <trip id="veh217" type="veh_passenger" depart="451.80" departLane="best" departSpeed="max" from="139877309" to="-111833185"/>
    <trip id="veh218" type="veh_passenger" depart="453.89" departLane="best" from="534588621#1" to="819027709#0"/>
    <trip id="veh219" type="veh_passenger" depart="455.97" departLane="best" from="-461526153" to="-6227658#0"/>
    <trip id="veh220" type="veh_passenger" depart="458.05" departLane="best" from="169195795#6" to="-156364570#3"/>
    <trip id="veh221" type="veh_passenger" depart="460.13" departLane="best" departSpeed="max" from="11549897" to="43156728#2"/>
    <trip id="veh222" type="veh_passenger" depart="462.22" departLane="best" departSpeed="max" from="158023913#0" to="-43159545#0"/>
    <trip id="veh223" type="veh_passenger" depart="464.30" departLane="best" from="190447768#1" to="-24993933#4"/>
    <trip id="veh224" type="veh_passenger" depart="466.38" departLane="best" from="156364553#1" to="24242882#2"/>
    <trip id="veh225" type="veh_passenger" depart="468.46" departLane="best" from="-168940071#2" to="316746323#0"/>
    <trip id="veh226" type="veh_passenger" depart="470.54" departLane="best" from="-316746323#0" to="202156995#0"/>
    <trip id="veh227" type="veh_passenger" depart="472.63" departLane="best" from="-194962375#0" to="19002363#1"/>
    <trip id="veh228" type="veh_passenger" depart="474.71" departLane="best" departSpeed="max" from="-4613293" to="169195795#6"/>
    <trip id="veh229" type="veh_passenger" depart="476.79" departLane="best" departSpeed="max" from="454285423#0" to="19002363#1"/>
    <trip id="veh230" type="veh_passenger" depart="478.87" departLane="best" departSpeed="max" from="-51167934#4" to="-234463931#0"/>
    <trip id="veh231" type="veh_passenger" depart="480.95" departLane="best" from="-156364570#3" to="23851930"/>
    <trip id="veh232" type="veh_passenger" depart="483.04" departLane="best" from="874528353#0" to="171826984#2"/>
    <trip id="veh233" type="veh_passenger" depart="485.12" departLane="best" departSpeed="max" from="309479676" to="4611713"/>
    <trip id="veh234" type="veh_passenger" depart="487.20" departLane="best" departSpeed="max" from="309479676" to="4610600"/>
    <trip id="veh235" type="veh_passenger" depart="489.28" departLane="best" departSpeed="max" from="755551647" to="-4612968#1"/>
    <trip id="veh236" type="veh_passenger" depart="491.36" departLane="best" from="-15977422#0" to="-36892597"/>
    <trip id="veh237" type="veh_passenger" depart="493.45" departLane="best" departSpeed="max" from="-25294729#1" to="35578576#1"/>
    <trip id="veh238" type="veh_passenger" depart="495.53" departLane="best" departSpeed="max" from="24243052#0" to="-6227658#0"/>
    <trip id="veh239" type="veh_passenger" depart="497.61" departLane="best" departSpeed="max" from="342968607#0" to="4611693#2"/>
    <trip id="veh240" type="veh_passenger" depart="499.69" departLane="best" departSpeed="max" from="-437325048#1" to="289966097"/>
    <trip id="veh241" type="veh_passenger" depart="501.77" departLane="best" from="437325047#5" to="-243854725#3"/>
    <trip id="veh243" type="veh_passenger" depart="505.94" departLane="best" from="-24242882#3" to="-156364553#0"/>
    <trip id="veh244" type="veh_passenger" depart="508.02" departLane="best" departSpeed="max" from="11549897" to="415280722"/>
    <trip id="veh245" type="veh_passenger" depart="510.10" departLane="best" from="819027709#0" to="194069450#0"/>
    <trip id="veh246" type="veh_passenger" depart="512.18" departLane="best" departSpeed="max" from="36892597" to="-23121445#1"/>
    <trip id="veh247" type="veh_passenger" depart="514.27" departLane="best" from="340498982#3" to="289966097"/>
    <trip id="veh248" type="veh_passenger" depart="516.35" departLane="best" departSpeed="max" from="-23813206#2" to="4611698#1"/>
    <trip id="veh249" type="veh_passenger" depart="518.43" departLane="best" departSpeed="max" from="523630405#0" to="289966097"/>
    <trip id="veh250" type="veh_passenger" depart="520.51" departLane="best" departSpeed="max" from="-25294729#1" to="840860363#1"/>
    <trip id="veh251" type="veh_passenger" depart="522.59" departLane="best" from="4610479#0" to="171423001#2"/>