<?xml version="1.0" encoding="UTF-8"?>

<!-- generated on 12/04/20 23:20:24 by Eclipse SUMO netconvert Version 1.7.0
<configuration xmlns:xsi="http://www.w3.org/2001/XMLSchema-instance" xsi:noNamespaceSchemaLocation="http://sumo.dlr.de/xsd/netconvertConfiguration.xsd">

    <input>
        <type-files value="D:\SUMO\data\typemap\osmNetconvert.typ.xml"/>
        <osm-files value="osm_bbox.osm.xml"/>
    </input>

    <output>
        <output-file value="osm.net.xml"/>
        <output.street-names value="true"/>
        <output.original-names value="true"/>
    </output>

    <projection>
        <proj.utm value="true"/>
    </projection>

    <processing>
        <geometry.remove value="true"/>
        <roundabouts.guess value="true"/>
    </processing>

    <tls_building>
        <tls.discard-simple value="true"/>
        <tls.join value="true"/>
        <tls.guess-signals value="true"/>
        <tls.default-type value="actuated"/>
    </tls_building>

    <ramp_guessing>
        <ramps.guess value="true"/>
    </ramp_guessing>

    <junctions>
        <junctions.join value="true"/>
        <junctions.corner-detail value="5"/>
    </junctions>

    <report>
        <verbose value="true"/>
        <aggregate-warnings value="5"/>
    </report>

</configuration>
-->

<net version="1.6" junctionCornerDetail="5" limitTurnSpeed="5.50" xmlns:xsi="http://www.w3.org/2001/XMLSchema-instance" xsi:noNamespaceSchemaLocation="http://sumo.dlr.de/xsd/net_file.xsd">

    <location netOffset="-390301.73,-5819547.61" convBoundary="0.00,0.00,1748.94,1556.12" origBoundary="13.372213,52.514940,13.408994,52.529230" projParameter="+proj=utm +zone=33 +ellps=WGS84 +datum=WGS84 +units=m +no_defs"/>

    <type id="highway.bridleway" priority="1" numLanes="1" speed="2.78" allow="pedestrian" oneway="1" width="2.00"/>
    <type id="highway.bus_guideway" priority="1" numLanes="1" speed="27.78" allow="bus" oneway="1"/>
    <type id="highway.cycleway" priority="1" numLanes="1" speed="8.33" allow="bicycle" oneway="0" width="1.00"/>
    <type id="highway.footway" priority="1" numLanes="1" speed="2.78" allow="pedestrian" oneway="1" width="2.00"/>
    <type id="highway.ford" priority="1" numLanes="1" speed="2.78" allow="army" oneway="0"/>
    <type id="highway.living_street" priority="2" numLanes="1" speed="2.78" disallow="tram rail_urban rail rail_electric rail_fast ship" oneway="0"/>
    <type id="highway.motorway" priority="14" numLanes="2" speed="39.44" allow="private emergency authority army vip passenger hov taxi bus coach delivery truck trailer motorcycle evehicle custom1 custom2" oneway="1"/>
    <type id="highway.motorway_link" priority="9" numLanes="1" speed="22.22" allow="private emergency authority army vip passenger hov taxi bus coach delivery truck trailer motorcycle evehicle custom1 custom2" oneway="1"/>
    <type id="highway.path" priority="1" numLanes="1" speed="2.78" allow="pedestrian bicycle" oneway="1" width="2.00"/>
    <type id="highway.pedestrian" priority="1" numLanes="1" speed="2.78" allow="pedestrian" oneway="1" width="2.00"/>
    <type id="highway.primary" priority="12" numLanes="2" speed="27.78" disallow="tram rail_urban rail rail_electric rail_fast ship" oneway="0"/>
    <type id="highway.primary_link" priority="7" numLanes="1" speed="22.22" disallow="tram rail_urban rail rail_electric rail_fast ship" oneway="0"/>
    <type id="highway.raceway" priority="15" numLanes="2" speed="83.33" allow="vip" oneway="0"/>
    <type id="highway.residential" priority="3" numLanes="1" speed="13.89" disallow="tram rail_urban rail rail_electric rail_fast ship" oneway="0"/>
    <type id="highway.secondary" priority="11" numLanes="1" speed="27.78" disallow="tram rail_urban rail rail_electric rail_fast ship" oneway="0"/>
    <type id="highway.secondary_link" priority="6" numLanes="1" speed="22.22" disallow="tram rail_urban rail rail_electric rail_fast ship" oneway="0"/>
    <type id="highway.service" priority="1" numLanes="1" speed="5.56" allow="pedestrian delivery bicycle" oneway="0"/>
    <type id="highway.stairs" priority="1" numLanes="1" speed="1.39" allow="pedestrian" oneway="1" width="2.00"/>
    <type id="highway.step" priority="1" numLanes="1" speed="1.39" allow="pedestrian" oneway="1" width="2.00"/>
    <type id="highway.steps" priority="1" numLanes="1" speed="1.39" allow="pedestrian" oneway="1" width="2.00"/>
    <type id="highway.tertiary" priority="10" numLanes="1" speed="22.22" disallow="tram rail_urban rail rail_electric rail_fast ship" oneway="0"/>
    <type id="highway.tertiary_link" priority="5" numLanes="1" speed="22.22" disallow="tram rail_urban rail rail_electric rail_fast ship" oneway="0"/>
    <type id="highway.track" priority="1" numLanes="1" speed="5.56" allow="pedestrian motorcycle moped bicycle" oneway="0"/>
    <type id="highway.trunk" priority="13" numLanes="2" speed="27.78" disallow="pedestrian bicycle tram rail_urban rail rail_electric rail_fast ship" oneway="0"/>
    <type id="highway.trunk_link" priority="8" numLanes="1" speed="22.22" disallow="pedestrian bicycle tram rail_urban rail rail_electric rail_fast ship" oneway="0"/>
    <type id="highway.unclassified" priority="4" numLanes="1" speed="13.89" disallow="tram rail_urban rail rail_electric rail_fast ship" oneway="0"/>
    <type id="highway.unsurfaced" priority="1" numLanes="1" speed="8.33" disallow="tram rail_urban rail rail_electric rail_fast ship" oneway="0"/>
    <type id="railway.highspeed" priority="21" numLanes="1" speed="69.44" allow="rail_fast" oneway="1"/>
    <type id="railway.light_rail" priority="19" numLanes="1" speed="27.78" allow="rail_urban" oneway="1"/>
    <type id="railway.preserved" priority="16" numLanes="1" speed="27.78" allow="rail" oneway="1"/>
    <type id="railway.rail" priority="20" numLanes="1" speed="44.44" allow="rail" oneway="1"/>
    <type id="railway.subway" priority="18" numLanes="1" speed="27.78" allow="rail_urban" oneway="1"/>
    <type id="railway.tram" priority="17" numLanes="1" speed="13.89" allow="tram" oneway="1"/>

    <edge id=":1075544310_0" function="internal">
        <lane id=":1075544310_0_0" index="0" disallow="tram rail_urban rail rail_electric rail_fast ship" speed="3.65" length="4.67" shape="753.42,838.25 753.80,836.86 754.43,836.23 755.31,836.35 756.45,837.23"/>
    </edge>
    <edge id=":1157325170_0" function="internal">
        <lane id=":1157325170_0_0" index="0" allow="tram" speed="13.89" length="5.44" shape="1394.38,615.89 1397.65,611.53"/>
    </edge>
    <edge id=":1157325174_0" function="internal">
        <lane id=":1157325174_0_0" index="0" disallow="tram rail_urban rail rail_electric rail_fast ship" speed="13.89" length="4.99" shape="1408.49,618.66 1405.45,622.59"/>
        <lane id=":1157325174_0_1" index="1" disallow="tram rail_urban rail rail_electric rail_fast ship" speed="13.89" length="4.99" shape="1405.98,616.68 1402.91,620.64"/>
    </edge>
    <edge id=":1217651538_0" function="internal">
        <lane id=":1217651538_0_0" index="0" allow="pedestrian delivery bicycle" speed="5.17" length="5.16" shape="771.55,652.22 770.28,651.50 769.10,651.33 768.00,651.69 767.00,652.60"/>
    </edge>
    <edge id=":1217651538_1" function="internal">
        <lane id=":1217651538_1_0" index="0" allow="pedestrian delivery bicycle" speed="6.87" length="10.36" shape="771.55,652.22 769.56,650.22 768.72,648.05 769.01,645.73 770.45,643.24"/>
    </edge>
    <edge id=":1217651538_2" function="internal">
        <lane id=":1217651538_2_0" index="0" allow="pedestrian delivery bicycle" speed="3.65" length="4.67" shape="771.55,652.22 771.07,650.86 771.23,649.98 772.03,649.58 773.47,649.66"/>
    </edge>
    <edge id=":1217651538_3" function="internal">
        <lane id=":1217651538_3_0" index="0" allow="pedestrian delivery bicycle" speed="5.03" length="5.06" shape="772.92,645.28 772.22,646.49 772.08,647.62 772.50,648.68 773.47,649.66"/>
    </edge>
    <edge id=":1217651538_4" function="internal">
        <lane id=":1217651538_4_0" index="0" disallow="tram rail_urban rail rail_electric rail_fast ship" speed="8.33" length="9.42" shape="772.92,645.28 767.00,652.60"/>
    </edge>
    <edge id=":1217651538_5" function="internal">
        <lane id=":1217651538_5_0" index="0" disallow="tram rail_urban rail rail_electric rail_fast ship" speed="3.65" length="2.34" shape="772.92,645.28 771.54,645.70 770.67,645.49"/>
    </edge>
    <edge id=":1217651538_9" function="internal">
        <lane id=":1217651538_9_0" index="0" disallow="tram rail_urban rail rail_electric rail_fast ship" speed="3.65" length="2.34" shape="770.67,645.49 770.31,644.68 770.45,643.24"/>
    </edge>
    <edge id=":1217651538_6" function="internal">
        <lane id=":1217651538_6_0" index="0" disallow="tram rail_urban rail rail_electric rail_fast ship" speed="8.33" length="9.45" shape="764.52,650.59 770.45,643.24"/>
    </edge>
    <edge id=":1217651538_7" function="internal">
        <lane id=":1217651538_7_0" index="0" allow="pedestrian delivery bicycle" speed="6.95" length="5.02" shape="764.52,650.59 766.52,648.75 768.68,647.98"/>
    </edge>
    <edge id=":1217651538_8" function="internal">
        <lane id=":1217651538_8_0" index="0" disallow="tram rail_urban rail rail_electric rail_fast ship" speed="3.65" length="2.34" shape="764.52,650.59 765.89,650.16 766.77,650.35"/>
    </edge>
    <edge id=":1217651538_10" function="internal">
        <lane id=":1217651538_10_0" index="0" allow="pedestrian delivery bicycle" speed="6.95" length="5.17" shape="768.68,647.98 771.00,648.28 773.47,649.66"/>
    </edge>
    <edge id=":1217651538_11" function="internal">
        <lane id=":1217651538_11_0" index="0" disallow="tram rail_urban rail rail_electric rail_fast ship" speed="3.65" length="2.34" shape="766.77,650.35 767.14,651.17 767.00,652.60"/>
    </edge>
    <edge id=":1371317063_0" function="internal">
        <lane id=":1371317063_0_0" index="0" disallow="tram rail_urban rail rail_electric rail_fast ship" speed="8.33" length="5.29" shape="916.36,438.89 911.80,436.19"/>
    </edge>
    <edge id=":1371317063_1" function="internal">
        <lane id=":1371317063_1_0" index="0" disallow="tram rail_urban rail rail_electric rail_fast ship" speed="3.65" length="4.67" shape="916.36,438.89 915.72,437.59 915.77,436.70 916.52,436.21 917.95,436.11"/>
    </edge>
    <edge id=":1371317063_2" function="internal">
        <lane id=":1371317063_2_0" index="0" disallow="tram rail_urban rail rail_electric rail_fast ship" speed="8.33" length="5.25" shape="913.44,433.44 917.95,436.11"/>
    </edge>
    <edge id=":1371317063_3" function="internal">
        <lane id=":1371317063_3_0" index="0" disallow="tram rail_urban rail rail_electric rail_fast ship" speed="3.65" length="4.67" shape="913.44,433.44 914.06,434.74 913.99,435.63 913.24,436.12 911.80,436.19"/>
    </edge>
    <edge id=":1449754450_0" function="internal">
        <lane id=":1449754450_0_0" index="0" allow="pedestrian delivery bicycle" speed="4.93" length="5.13" shape="858.24,447.90 856.86,447.55 855.74,447.75 854.89,448.51 854.30,449.81"/>
    </edge>
    <edge id=":1449754450_1" function="internal">
        <lane id=":1449754450_1_0" index="0" allow="pedestrian delivery bicycle" speed="5.56" length="9.44" shape="858.24,447.90 849.51,444.33"/>
    </edge>
    <edge id=":1449754450_2" function="internal">
        <lane id=":1449754450_2_0" index="0" allow="pedestrian delivery bicycle" speed="3.65" length="4.67" shape="858.24,447.90 857.44,446.70 857.37,445.81 858.04,445.22 859.46,444.93"/>
    </edge>
    <edge id=":1449754450_3" function="internal">
        <lane id=":1449754450_3_0" index="0" allow="pedestrian delivery bicycle" speed="5.56" length="9.44" shape="850.72,441.37 859.46,444.93"/>
    </edge>
    <edge id=":1449754450_4" function="internal">
        <lane id=":1449754450_4_0" index="0" allow="pedestrian delivery bicycle" speed="5.56" length="10.22" shape="850.72,441.37 852.96,442.72 854.31,444.58 854.75,446.94 854.30,449.81"/>
    </edge>
    <edge id=":1449754450_5" function="internal">
        <lane id=":1449754450_5_0" index="0" allow="pedestrian delivery bicycle" speed="3.65" length="4.67" shape="850.72,441.37 851.53,442.56 851.59,443.45 850.92,444.04 849.51,444.33"/>
    </edge>
    <edge id=":1449754450_6" function="internal">
        <lane id=":1449754450_6_0" index="0" allow="pedestrian delivery bicycle" speed="5.41" length="5.45" shape="851.22,448.92 851.49,447.33 851.30,446.03 850.64,445.03 849.51,444.33"/>
    </edge>
    <edge id=":1449754450_7" function="internal">
        <lane id=":1449754450_7_0" index="0" allow="pedestrian delivery bicycle" speed="5.56" length="10.70" shape="851.22,448.92 852.45,446.21 854.23,444.64 856.57,444.21 859.46,444.93"/>
    </edge>
    <edge id=":1449754450_8" function="internal">
        <lane id=":1449754450_8_0" index="0" allow="pedestrian delivery bicycle" speed="3.65" length="4.67" shape="851.22,448.92 852.33,447.99 853.21,447.83 853.86,448.43 854.30,449.81"/>
    </edge>
    <edge id=":1457124706_0" function="internal">
        <lane id=":1457124706_0_0" index="0" allow="pedestrian delivery bicycle" speed="3.65" length="4.67" shape="838.42,394.32 839.33,393.20 840.17,392.88 840.92,393.36 841.60,394.63"/>
    </edge>
    <edge id=":1457124739_0" function="internal">
        <lane id=":1457124739_0_0" index="0" allow="pedestrian delivery bicycle" speed="5.56" length="8.81" shape="838.76,439.94 836.73,438.78 835.35,437.23 834.63,435.29 834.55,432.96"/>
    </edge>
    <edge id=":1457124739_1" function="internal">
        <lane id=":1457124739_1_0" index="0" allow="pedestrian delivery bicycle" speed="3.65" length="4.67" shape="838.76,439.94 837.95,438.75 837.88,437.85 838.55,437.26 839.97,436.98"/>
    </edge>
    <edge id=":1457124739_2" function="internal">
        <lane id=":1457124739_2_0" index="0" allow="pedestrian delivery bicycle" speed="5.44" length="4.67" shape="837.74,433.28 837.78,434.51 838.16,435.54 838.89,436.36 839.97,436.98"/>
    </edge>
    <edge id=":1457124739_3" function="internal">
        <lane id=":1457124739_3_0" index="0" allow="pedestrian delivery bicycle" speed="3.65" length="4.67" shape="837.74,433.28 836.82,434.39 835.99,434.71 835.23,434.23 834.55,432.96"/>
    </edge>
    <edge id=":1457124764_0" function="internal">
        <lane id=":1457124764_0_0" index="0" allow="pedestrian delivery bicycle" speed="3.65" length="4.67" shape="880.12,453.37 880.93,454.57 880.99,455.46 880.32,456.05 878.91,456.34"/>
    </edge>
    <edge id=":1472911019_0" function="internal">
        <lane id=":1472911019_0_0" index="0" disallow="tram rail_urban rail rail_electric rail_fast ship" speed="13.89" length="4.99" shape="1273.59,386.38 1269.32,383.78"/>
        <lane id=":1472911019_0_1" index="1" disallow="tram rail_urban rail rail_electric rail_fast ship" speed="13.89" length="4.99" shape="1275.25,383.65 1270.99,381.05"/>
    </edge>
    <edge id=":1473258656_0" function="internal">
        <lane id=":1473258656_0_0" index="0" allow="pedestrian delivery bicycle" speed="4.17" length="5.46" shape="1053.86,523.37 1052.64,522.85 1051.44,522.89 1050.26,523.47 1049.11,524.61"/>
    </edge>
    <edge id=":1473258656_1" function="internal">
        <lane id=":1473258656_1_0" index="0" disallow="tram rail_urban rail rail_electric rail_fast ship" speed="2.78" length="9.44" shape="1053.86,523.37 1045.92,518.27"/>
    </edge>
    <edge id=":1473258656_2" function="internal">
        <lane id=":1473258656_2_0" index="0" disallow="tram rail_urban rail rail_electric rail_fast ship" speed="2.78" length="2.34" shape="1053.86,523.37 1053.29,522.05 1053.38,521.16"/>
    </edge>
    <edge id=":1473258656_9" function="internal">
        <lane id=":1473258656_9_0" index="0" disallow="tram rail_urban rail rail_electric rail_fast ship" speed="2.78" length="2.34" shape="1053.38,521.16 1054.15,520.70 1055.59,520.68"/>
    </edge>
    <edge id=":1473258656_3" function="internal">
        <lane id=":1473258656_3_0" index="0" disallow="tram rail_urban rail rail_electric rail_fast ship" speed="2.78" length="9.44" shape="1047.65,515.58 1055.59,520.68"/>
    </edge>
    <edge id=":1473258656_4" function="internal">
        <lane id=":1473258656_4_0" index="0" allow="pedestrian delivery bicycle" speed="4.17" length="5.17" shape="1047.65,515.58 1049.90,517.53 1050.82,519.51"/>
    </edge>
    <edge id=":1473258656_5" function="internal">
        <lane id=":1473258656_5_0" index="0" disallow="tram rail_urban rail rail_electric rail_fast ship" speed="2.78" length="2.34" shape="1047.65,515.58 1048.23,516.90 1048.13,517.79"/>
    </edge>
    <edge id=":1473258656_10" function="internal">
        <lane id=":1473258656_10_0" index="0" allow="pedestrian delivery bicycle" speed="4.17" length="5.55" shape="1050.82,519.51 1050.90,519.68 1050.63,522.04 1049.11,524.61"/>
    </edge>
    <edge id=":1473258656_11" function="internal">
        <lane id=":1473258656_11_0" index="0" disallow="tram rail_urban rail rail_electric rail_fast ship" speed="2.78" length="2.34" shape="1048.13,517.79 1047.36,518.24 1045.92,518.27"/>
    </edge>
    <edge id=":1473258656_6" function="internal">
        <lane id=":1473258656_6_0" index="0" allow="pedestrian delivery bicycle" speed="4.17" length="5.13" shape="1046.62,522.60 1047.35,521.37 1047.48,520.24 1047.00,519.20 1045.92,518.27"/>
    </edge>
    <edge id=":1473258656_7" function="internal">
        <lane id=":1473258656_7_0" index="0" allow="pedestrian delivery bicycle" speed="4.17" length="10.22" shape="1046.62,522.60 1048.71,520.58 1050.91,519.59 1053.20,519.62 1055.59,520.68"/>
    </edge>
    <edge id=":1473258656_8" function="internal">
        <lane id=":1473258656_8_0" index="0" allow="pedestrian delivery bicycle" speed="3.65" length="4.67" shape="1046.62,522.60 1048.00,522.17 1048.87,522.36 1049.24,523.17 1049.11,524.61"/>
    </edge>
    <edge id=":1473258657_0" function="internal">
        <lane id=":1473258657_0_0" index="0" allow="pedestrian bicycle" speed="2.78" length="5.01" width="2.00" shape="1035.37,522.14 1039.54,524.91"/>
    </edge>
    <edge id=":1473258657_1" function="internal">
        <lane id=":1473258657_1_0" index="0" allow="pedestrian bicycle" speed="2.78" length="4.12" width="2.00" shape="1035.94,525.60 1036.75,524.80 1037.63,524.41 1038.55,524.45 1039.54,524.91"/>
    </edge>
    <edge id=":1473258660_0" function="internal">
        <lane id=":1473258660_0_0" index="0" allow="pedestrian bicycle" speed="4.17" length="4.58" width="2.00" shape="1047.29,526.92 1046.78,527.94 1046.79,528.91 1047.32,529.85 1048.38,530.74"/>
    </edge>
    <edge id=":1473258660_1" function="internal">
        <lane id=":1473258660_1_0" index="0" allow="pedestrian delivery bicycle" speed="5.56" length="5.39" shape="1047.29,526.92 1044.06,531.23"/>
    </edge>
    <edge id=":1473258660_2" function="internal">
        <lane id=":1473258660_2_0" index="0" allow="pedestrian delivery bicycle" speed="3.65" length="2.34" shape="1047.29,526.92 1045.93,527.40 1045.05,527.24"/>
    </edge>
    <edge id=":1473258660_9" function="internal">
        <lane id=":1473258660_9_0" index="0" allow="pedestrian delivery bicycle" speed="3.65" length="2.34" shape="1045.05,527.24 1044.65,526.44 1044.73,525.00"/>
    </edge>
    <edge id=":1473258660_3" function="internal">
        <lane id=":1473258660_3_0" index="0" allow="pedestrian bicycle" speed="4.17" length="4.88" shape="1040.42,525.49 1041.68,526.11 1042.82,526.24 1043.83,525.87 1044.73,525.00"/>
    </edge>
    <edge id=":1473258660_4" function="internal">
        <lane id=":1473258660_4_0" index="0" allow="pedestrian bicycle" speed="2.78" length="9.53" width="2.00" shape="1040.42,525.49 1048.38,530.74"/>
    </edge>
    <edge id=":1473258660_5" function="internal">
        <lane id=":1473258660_5_0" index="0" allow="pedestrian bicycle" speed="4.17" length="7.50" shape="1040.42,525.49 1042.64,527.17 1043.99,528.68 1044.46,530.04 1044.06,531.23"/>
    </edge>
    <edge id=":1473258660_6" function="internal">
        <lane id=":1473258660_6_0" index="0" allow="pedestrian delivery bicycle" speed="5.56" length="5.39" shape="1041.50,529.31 1044.73,525.00"/>
    </edge>
    <edge id=":1473258660_7" function="internal">
        <lane id=":1473258660_7_0" index="0" allow="pedestrian bicycle" speed="4.17" length="2.71" width="2.00" shape="1041.50,529.31 1042.51,528.62 1044.00,528.63"/>
    </edge>
    <edge id=":1473258660_8" function="internal">
        <lane id=":1473258660_8_0" index="0" allow="pedestrian delivery bicycle" speed="3.65" length="2.34" shape="1041.50,529.31 1042.86,528.83 1043.74,528.99"/>
    </edge>
    <edge id=":1473258660_10" function="internal">
        <lane id=":1473258660_10_0" index="0" allow="pedestrian bicycle" speed="4.17" length="4.88" width="2.00" shape="1044.00,528.63 1045.95,529.34 1048.38,530.74"/>
    </edge>
    <edge id=":1473258660_11" function="internal">
        <lane id=":1473258660_11_0" index="0" allow="pedestrian delivery bicycle" speed="3.65" length="2.34" shape="1043.74,528.99 1044.14,529.79 1044.06,531.23"/>
    </edge>
    <edge id=":1473258664_0" function="internal">
        <lane id=":1473258664_0_0" index="0" allow="pedestrian delivery bicycle" speed="4.17" length="5.07" shape="1111.99,560.76 1110.73,560.14 1109.60,560.09 1108.59,560.62 1107.71,561.71"/>
    </edge>
    <edge id=":1473258664_1" function="internal">
        <lane id=":1473258664_1_0" index="0" disallow="tram rail_urban rail rail_electric rail_fast ship" speed="2.78" length="9.45" shape="1111.99,560.76 1104.10,555.55"/>
    </edge>
    <edge id=":1473258664_2" function="internal">
        <lane id=":1473258664_2_0" index="0" disallow="tram rail_urban rail rail_electric rail_fast ship" speed="2.78" length="2.34" shape="1111.99,560.76 1111.45,559.42 1111.57,558.53"/>
    </edge>
    <edge id=":1473258664_9" function="internal">
        <lane id=":1473258664_9_0" index="0" disallow="tram rail_urban rail rail_electric rail_fast ship" speed="2.78" length="2.34" shape="1111.57,558.53 1112.35,558.10 1113.79,558.11"/>
    </edge>
    <edge id=":1473258664_3" function="internal">
        <lane id=":1473258664_3_0" index="0" disallow="tram rail_urban rail rail_electric rail_fast ship" speed="2.78" length="9.54" shape="1105.82,552.85 1113.79,558.11"/>
    </edge>
    <edge id=":1473258664_4" function="internal">
        <lane id=":1473258664_4_0" index="0" allow="pedestrian delivery bicycle" speed="4.17" length="5.04" shape="1105.82,552.85 1107.89,554.65 1108.89,556.72"/>
    </edge>
    <edge id=":1473258664_5" function="internal">
        <lane id=":1473258664_5_0" index="0" disallow="tram rail_urban rail rail_electric rail_fast ship" speed="2.78" length="2.34" shape="1105.82,552.85 1106.40,554.17 1106.31,555.06"/>
    </edge>
    <edge id=":1473258664_10" function="internal">
        <lane id=":1473258664_10_0" index="0" allow="pedestrian delivery bicycle" speed="4.17" length="5.21" shape="1108.89,556.72 1108.83,559.07 1107.71,561.71"/>
    </edge>
    <edge id=":1473258664_11" function="internal">
        <lane id=":1473258664_11_0" index="0" disallow="tram rail_urban rail rail_electric rail_fast ship" speed="2.78" length="2.34" shape="1106.31,555.06 1105.54,555.52 1104.10,555.55"/>
    </edge>
    <edge id=":1473258664_6" function="internal">
        <lane id=":1473258664_6_0" index="0" allow="pedestrian delivery bicycle" speed="4.17" length="5.20" shape="1104.96,560.07 1105.55,558.71 1105.60,557.50 1105.12,556.45 1104.10,555.55"/>
    </edge>
    <edge id=":1473258664_7" function="internal">
        <lane id=":1473258664_7_0" index="0" allow="pedestrian delivery bicycle" speed="4.17" length="10.46" shape="1104.96,560.07 1106.78,557.82 1108.86,556.74 1111.19,556.84 1113.79,558.11"/>
    </edge>
    <edge id=":1473258664_8" function="internal">
        <lane id=":1473258664_8_0" index="0" allow="pedestrian delivery bicycle" speed="3.65" length="4.67" shape="1104.96,560.07 1106.26,559.45 1107.15,559.51 1107.64,560.27 1107.71,561.71"/>
    </edge>
    <edge id=":1473258672_0" function="internal">
        <lane id=":1473258672_0_0" index="0" allow="pedestrian delivery bicycle" speed="5.56" length="10.13" shape="1021.32,567.00 1019.35,565.04 1018.49,562.92 1018.72,560.64 1020.04,558.20"/>
    </edge>
    <edge id=":1473258672_1" function="internal">
        <lane id=":1473258672_1_0" index="0" allow="pedestrian delivery bicycle" speed="3.65" length="4.67" shape="1021.32,567.00 1020.84,565.64 1021.00,564.76 1021.80,564.36 1023.24,564.44"/>
    </edge>
    <edge id=":1473258672_2" function="internal">
        <lane id=":1473258672_2_0" index="0" allow="pedestrian delivery bicycle" speed="5.05" length="4.99" shape="1022.61,560.11 1021.96,561.31 1021.84,562.43 1022.27,563.48 1023.24,564.44"/>
    </edge>
    <edge id=":1473258672_3" function="internal">
        <lane id=":1473258672_3_0" index="0" allow="pedestrian delivery bicycle" speed="3.65" length="4.67" shape="1022.61,560.11 1021.25,560.59 1020.37,560.44 1019.97,559.64 1020.04,558.20"/>
    </edge>
    <edge id=":1473258678_0" function="internal">
        <lane id=":1473258678_0_0" index="0" allow="pedestrian bicycle" speed="4.17" length="4.57" width="2.00" shape="1105.36,565.11 1104.84,566.12 1104.84,567.09 1105.36,568.03 1106.40,568.94"/>
    </edge>
    <edge id=":1473258678_1" function="internal">
        <lane id=":1473258678_1_0" index="0" allow="pedestrian delivery bicycle" speed="5.56" length="5.37" shape="1105.36,565.11 1102.12,569.39"/>
    </edge>
    <edge id=":1473258678_2" function="internal">
        <lane id=":1473258678_2_0" index="0" allow="pedestrian delivery bicycle" speed="3.65" length="2.34" shape="1105.36,565.11 1104.00,565.58 1103.12,565.41"/>
    </edge>
    <edge id=":1473258678_9" function="internal">
        <lane id=":1473258678_9_0" index="0" allow="pedestrian delivery bicycle" speed="3.65" length="2.34" shape="1103.12,565.41 1102.72,564.61 1102.81,563.17"/>
    </edge>
    <edge id=":1473258678_3" function="internal">
        <lane id=":1473258678_3_0" index="0" allow="pedestrian bicycle" speed="4.17" length="4.88" shape="1098.49,563.64 1099.75,564.26 1100.89,564.39 1101.91,564.03 1102.81,563.17"/>
    </edge>
    <edge id=":1473258678_4" function="internal">
        <lane id=":1473258678_4_0" index="0" allow="pedestrian bicycle" speed="2.78" length="9.53" width="2.00" shape="1098.49,563.64 1106.40,568.94"/>
    </edge>
    <edge id=":1473258678_5" function="internal">
        <lane id=":1473258678_5_0" index="0" allow="pedestrian bicycle" speed="4.17" length="7.52" shape="1098.49,563.64 1100.71,565.31 1102.06,566.82 1102.53,568.18 1102.12,569.39"/>
    </edge>
    <edge id=":1473258678_6" function="internal">
        <lane id=":1473258678_6_0" index="0" allow="pedestrian delivery bicycle" speed="5.56" length="5.38" shape="1099.56,567.46 1102.81,563.17"/>
    </edge>
    <edge id=":1473258678_7" function="internal">
        <lane id=":1473258678_7_0" index="0" allow="pedestrian bicycle" speed="4.17" length="2.72" width="2.00" shape="1099.56,567.46 1100.59,566.76 1102.07,566.78"/>
    </edge>
    <edge id=":1473258678_8" function="internal">
        <lane id=":1473258678_8_0" index="0" allow="pedestrian delivery bicycle" speed="3.65" length="2.34" shape="1099.56,567.46 1100.93,566.98 1101.81,567.15"/>
    </edge>
    <edge id=":1473258678_10" function="internal">
        <lane id=":1473258678_10_0" index="0" allow="pedestrian bicycle" speed="4.17" length="4.86" width="2.00" shape="1102.07,566.78 1104.01,567.50 1106.40,568.94"/>
    </edge>
    <edge id=":1473258678_11" function="internal">
        <lane id=":1473258678_11_0" index="0" allow="pedestrian delivery bicycle" speed="3.65" length="2.34" shape="1101.81,567.15 1102.20,567.95 1102.12,569.39"/>
    </edge>
    <edge id=":1473258716_0" function="internal">
        <lane id=":1473258716_0_0" index="0" allow="pedestrian bicycle" speed="2.78" length="4.06" width="2.00" shape="1119.35,577.79 1120.17,578.55 1120.54,579.38 1120.45,580.28 1119.90,581.26"/>
    </edge>
    <edge id=":1473258747_0" function="internal">
        <lane id=":1473258747_0_0" index="0" allow="pedestrian delivery bicycle" speed="5.56" length="9.40" shape="1077.66,601.65 1071.98,609.14"/>
    </edge>
    <edge id=":1473258747_1" function="internal">
        <lane id=":1473258747_1_0" index="0" allow="pedestrian delivery bicycle" speed="5.56" length="10.16" shape="1077.66,601.65 1075.69,603.60 1073.55,604.46 1071.27,604.21 1068.83,602.86"/>
    </edge>
    <edge id=":1473258747_2" function="internal">
        <lane id=":1473258747_2_0" index="0" allow="pedestrian delivery bicycle" speed="3.65" length="4.67" shape="1077.66,601.65 1076.30,602.12 1075.42,601.95 1075.03,601.15 1075.11,599.71"/>
    </edge>
    <edge id=":1473258747_3" function="internal">
        <lane id=":1473258747_3_0" index="0" allow="pedestrian delivery bicycle" speed="5.05" length="5.01" shape="1070.76,600.31 1071.96,600.97 1073.09,601.10 1074.14,600.68 1075.11,599.71"/>
    </edge>
    <edge id=":1473258747_4" function="internal">
        <lane id=":1473258747_4_0" index="0" allow="pedestrian delivery bicycle" speed="5.56" length="10.17" shape="1070.76,600.31 1072.73,602.29 1073.58,604.42 1073.34,606.70 1071.98,609.14"/>
    </edge>
    <edge id=":1473258747_5" function="internal">
        <lane id=":1473258747_5_0" index="0" allow="pedestrian delivery bicycle" speed="3.65" length="4.67" shape="1070.76,600.31 1071.24,601.67 1071.07,602.55 1070.27,602.95 1068.83,602.86"/>
    </edge>
    <edge id=":1473258747_6" function="internal">
        <lane id=":1473258747_6_0" index="0" allow="pedestrian delivery bicycle" speed="5.04" length="5.00" shape="1069.43,607.20 1070.10,606.00 1070.22,604.88 1069.80,603.83 1068.83,602.86"/>
    </edge>
    <edge id=":1473258747_7" function="internal">
        <lane id=":1473258747_7_0" index="0" allow="pedestrian delivery bicycle" speed="5.56" length="9.40" shape="1069.43,607.20 1075.11,599.71"/>