<?xml version="1.0" encoding="UTF-8"?>

<!-- generated on 12/04/20 23:20:25 by Eclipse SUMO duarouter Version 1.7.0
<configuration xmlns:xsi="http://www.w3.org/2001/XMLSchema-instance" xsi:noNamespaceSchemaLocation="http://sumo.dlr.de/xsd/duarouterConfiguration.xsd">

    <input>
        <net-file value="D:\github\sumo-learning\2020-12-04-23-20-15\osm.net.xml"/>
        <route-files value="D:\github\sumo-learning\2020-12-04-23-20-15\osm.passenger.trips.xml"/>
    </input>

    <output>
        <output-file value="D:\github\sumo-learning\2020-12-04-23-20-15\osm.passenger.trips.xml.tmp"/>
        <write-trips value="true"/>
    </output>

    <time>
        <begin value="0"/>
        <end value="36"/>
    </time>

    <report>
        <no-warnings value="true"/>
        <ignore-errors value="true"/>
        <no-step-log value="true"/>
    </report>

</configuration>
-->

<routes xmlns:xsi="http://www.w3.org/2001/XMLSchema-instance" xsi:noNamespaceSchemaLocation="http://sumo.dlr.de/xsd/routes_file.xsd">
    <vType id="veh_passenger" vClass="passenger"/>
    <trip id="veh0" type="veh_passenger" depart="0.00" departLane="best" departSpeed="max" from="340498976#0" to="-156364570#3"/>
</routes>
