<?xml version="1.0" encoding="UTF-8"?>

<!-- generated on 2021-06-06 21:52:09 by Eclipse SUMO duarouter Version 1.9.2
<configuration xmlns:xsi="http://www.w3.org/2001/XMLSchema-instance" xsi:noNamespaceSchemaLocation="http://sumo.dlr.de/xsd/duarouterConfiguration.xsd">

    <input>
        <net-file value="D:\SUMO\2021-06-06-21-51-17\osm.net.xml"/>
        <route-files value="D:\SUMO\2021-06-06-21-51-17\osm.passenger.trips.xml"/>
    </input>

    <output>
        <output-file value="D:\SUMO\2021-06-06-21-51-17\osm.passenger.trips.xml.tmp"/>
        <write-trips value="true"/>
    </output>

    <time>
        <begin value="0"/>
        <end value="3600"/>
    </time>

    <report>
        <no-warnings value="true"/>
        <ignore-errors value="true"/>
        <no-step-log value="true"/>
    </report>

</configuration>
-->

<routes xmlns:xsi="http://www.w3.org/2001/XMLSchema-instance" xsi:noNamespaceSchemaLocation="http://sumo.dlr.de/xsd/routes_file.xsd">
    <vType id="veh_passenger" vClass="passenger"/>
    <trip id="veh0" type="veh_passenger" depart="0.00" departLane="best" from="48740803#18" to="-261880792#2"/>
    <trip id="veh1" type="veh_passenger" depart="0.81" departLane="best" from="232361469#3" to="196961215#21"/>
    <trip id="veh2" type="veh_passenger" depart="1.62" departLane="best" from="49153819#0" to="48768134#2"/>
    <trip id="veh3" type="veh_passenger" depart="2.43" departLane="best" from="51797021#10" to="-377170283"/>
    <trip id="veh4" type="veh_passenger" depart="3.25" departLane="best" from="300090399#11" to="-293731275"/>
    <trip id="veh5" type="veh_passenger" depart="4.06" departLane="best" from="196961215#16" to="313682487"/>
    <trip id="veh6" type="veh_passenger" depart="4.87" departLane="best" departSpeed="max" from="-27595287#9" to="160053377#2"/>
    <trip id="veh7" type="veh_passenger" depart="5.68" departLane="best" from="48742273#7" to="335596315#1"/>
    <trip id="veh8" type="veh_passenger" depart="6.49" departLane="best" from="196961215#3" to="374427266"/>
    <trip id="veh9" type="veh_passenger" depart="7.30" departLane="best" from="506322857#7" to="-219066658#0"/>
    <trip id="veh11" type="veh_passenger" depart="8.92" departLane="best" from="255431333#17" to="-51354541#0"/>
    <trip id="veh12" type="veh_passenger" depart="9.74" departLane="best" from="668037880#0" to="255431324#2"/>
    <trip id="veh13" type="veh_passenger" depart="10.55" departLane="best" from="-43566001#2" to="-453793968#2"/>
    <trip id="veh14" type="veh_passenger" depart="11.36" departLane="best" from="51268669#3" to="382623046#2"/>
    <trip id="veh15" type="veh_passenger" depart="12.17" departLane="best" departSpeed="max" from="506322853#0" to="49073268"/>
    <trip id="veh16" type="veh_passenger" depart="12.98" departLane="best" from="334814745#15" to="771782812"/>
    <trip id="veh17" type="veh_passenger" depart="13.79" departLane="best" from="27595287#4" to="338922081#10"/>
    <trip id="veh18" type="veh_passenger" depart="14.60" departLane="best" from="506339435#1" to="437870662#4"/>
    <trip id="veh19" type="veh_passenger" depart="15.42" departLane="best" from="51268713#1" to="371297784"/>
    <trip id="veh20" type="veh_passenger" depart="16.23" departLane="best" from="48794898#1" to="-304481581#7"/>
    <trip id="veh21" type="veh_passenger" depart="17.04" departLane="best" from="196961379#19" to="238710696#1"/>
    <trip id="veh22" type="veh_passenger" depart="17.85" departLane="best" departSpeed="max" from="-338325576" to="196961379#30"/>
    <trip id="veh23" type="veh_passenger" depart="18.66" departLane="best" from="-454543631" to="232361466#2"/>
    <trip id="veh24" type="veh_passenger" depart="19.47" departLane="best" from="48740803#1" to="265738682#2"/>
    <trip id="veh25" type="veh_passenger" depart="20.28" departLane="best" from="232358533#2" to="555525974#0"/>
    <trip id="veh26" type="veh_passenger" depart="21.09" departLane="best" from="48742273#3" to="405980642#3"/>
    <trip id="veh27" type="veh_passenger" depart="21.91" departLane="best" from="-669268498#1" to="49073266#4"/>
    <trip id="veh28" type="veh_passenger" depart="22.72" departLane="best" from="-51797021#3" to="268569321#4"/>
    <trip id="veh29" type="veh_passenger" depart="23.53" departLane="best" from="906806103#0" to="48740801#2"/>
    <trip id="veh30" type="veh_passenger" depart="24.34" departLane="best" from="353798159#1" to="48776345#1"/>
    <trip id="veh31" type="veh_passenger" depart="25.15" departLane="best" from="506389476#1" to="49730012#7"/>
    <trip id="veh32" type="veh_passenger" depart="25.96" departLane="best" from="245649054#1" to="229798474#7"/>
    <trip id="veh33" type="veh_passenger" depart="26.77" departLane="best" from="196961202#2" to="593849718#12"/>
    <trip id="veh35" type="veh_passenger" depart="28.40" departLane="best" from="48742276#20" to="289004418#3"/>
    <trip id="veh36" type="veh_passenger" depart="29.21" departLane="best" from="518980182#15" to="304544026#0"/>
    <trip id="veh37" type="veh_passenger" depart="30.02" departLane="best" from="229887107#1" to="203686960#1"/>
    <trip id="veh38" type="veh_passenger" depart="30.83" departLane="best" from="35928056#3" to="226831245#2"/>
    <trip id="veh39" type="veh_passenger" depart="31.64" departLane="best" from="374427267#0" to="518974814#0"/>
    <trip id="veh41" type="veh_passenger" depart="33.26" departLane="best" from="910959594" to="317385446#0"/>
    <trip id="veh42" type="veh_passenger" depart="34.08" departLane="best" from="-404179543#0" to="-304698094#1"/>
    <trip id="veh43" type="veh_passenger" depart="34.89" departLane="best" from="-48776405#20" to="454543629#1"/>
    <trip id="veh44" type="veh_passenger" depart="35.70" departLane="best" from="506316035#5" to="299836295#1"/>
    <trip id="veh45" type="veh_passenger" depart="36.51" departLane="best" from="-311319110#3" to="277597488#0"/>
    <trip id="veh48" type="veh_passenger" depart="38.94" departLane="best" from="-232358537#11" to="49073194#1"/>
    <trip id="veh49" type="veh_passenger" depart="39.75" departLane="best" from="48776359#2" to="333599219#0"/>
    <trip id="veh50" type="veh_passenger" depart="40.57" departLane="best" from="231570915" to="48740801#4"/>
    <trip id="veh51" type="veh_passenger" depart="41.38" departLane="best" from="-48794882#4" to="303422776#2"/>
    <trip id="veh54" type="veh_passenger" depart="43.81" departLane="best" from="312614636#4" to="-769717189"/>
    <trip id="veh55" type="veh_passenger" depart="44.62" departLane="best" from="518980179#1" to="51420546#6"/>
    <trip id="veh56" type="veh_passenger" depart="45.43" departLane="best" from="244450473#0" to="48740801#0"/>
    <trip id="veh57" type="veh_passenger" depart="46.25" departLane="best" from="431945134#1" to="-51268702#5"/>
    <trip id="veh58" type="veh_passenger" depart="47.06" departLane="best" from="49695762#8" to="333599312"/>
    <trip id="veh59" type="veh_passenger" depart="47.87" departLane="best" from="49730061#1" to="329022964#1"/>
    <trip id="veh60" type="veh_passenger" depart="48.68" departLane="best" from="-136814139#3" to="252398632-AddedOffRampEdge"/>
    <trip id="veh61" type="veh_passenger" depart="49.49" departLane="best" from="-256670505#3" to="518982588#21"/>
    <trip id="veh62" type="veh_passenger" depart="50.30" departLane="best" from="51420787#10" to="506339431#6"/>
    <trip id="veh63" type="veh_passenger" depart="51.11" departLane="best" from="245644141#1" to="-309158949#4"/>
    <trip id="veh64" type="veh_passenger" depart="51.92" departLane="best" from="51420755" to="623877957#2"/>
    <trip id="veh65" type="veh_passenger" depart="52.74" departLane="best" from="-374427262#0" to="310677990#13"/>
    <trip id="veh66" type="veh_passenger" depart="53.55" departLane="best" departSpeed="max" from="-317388748#6" to="49695733#1"/>
    <trip id="veh67" type="veh_passenger" depart="54.36" departLane="best" from="49710758#5" to="-49710859#2"/>
    <trip id="veh68" type="veh_passenger" depart="55.17" departLane="best" from="309158949#14" to="336696230#1"/>
    <trip id="veh69" type="veh_passenger" depart="55.98" departLane="best" from="229887107#2" to="51420623#2"/>
    <trip id="veh70" type="veh_passenger" depart="56.79" departLane="best" from="300090399#14" to="189615573#1"/>
    <trip id="veh71" type="veh_passenger" depart="57.60" departLane="best" from="334841515#1" to="49073271#0"/>
    <trip id="veh72" type="veh_passenger" depart="58.42" departLane="best" from="182973460#6" to="245644142#13"/>
    <trip id="veh73" type="veh_passenger" depart="59.23" departLane="best" from="910567292" to="48740803#7"/>
    <trip id="veh74" type="veh_passenger" depart="60.04" departLane="best" from="303647019#4" to="323005092#2"/>
    <trip id="veh75" type="veh_passenger" depart="60.85" departLane="best" from="-49695706" to="196961216#2"/>
    <trip id="veh76" type="veh_passenger" depart="61.66" departLane="best" from="255431333#10" to="374427264#2"/>
    <trip id="veh77" type="veh_passenger" depart="62.47" departLane="best" from="196961379#30" to="196961214"/>
    <trip id="veh78" type="veh_passenger" depart="63.28" departLane="best" from="-330187851#1" to="463073085#2"/>
    <trip id="veh79" type="veh_passenger" depart="64.09" departLane="best" from="196961379#23" to="518977870"/>
    <trip id="veh80" type="veh_passenger" depart="64.91" departLane="best" from="198645491#3" to="48742278#9"/>
    <trip id="veh81" type="veh_passenger" depart="65.72" departLane="best" from="196961209#5" to="-49730051#1"/>
    <trip id="veh82" type="veh_passenger" depart="66.53" departLane="best" from="550544430#13" to="35928058#3"/>
    <trip id="veh83" type="veh_passenger" depart="67.34" departLane="best" from="309157015#1" to="49730072#4"/>
    <trip id="veh84" type="veh_passenger" depart="68.15" departLane="best" departSpeed="max" from="506322853#0" to="138265881#1"/>
    <trip id="veh85" type="veh_passenger" depart="68.96" departLane="best" from="-453793968#4" to="302320504#4"/>
    <trip id="veh86" type="veh_passenger" depart="69.77" departLane="best" from="300090399#2" to="30620527#9"/>
    <trip id="veh87" type="veh_passenger" depart="70.59" departLane="best" from="49153742#1" to="48768070#18"/>
    <trip id="veh88" type="veh_passenger" depart="71.40" departLane="best" departSpeed="max" from="906806090#0" to="-454543623#1"/>
    <trip id="veh89" type="veh_passenger" depart="72.21" departLane="best" from="296214427#8" to="255431333#10"/>
    <trip id="veh90" type="veh_passenger" depart="73.02" departLane="best" departSpeed="max" from="51268713#0" to="218906242#2"/>
    <trip id="veh91" type="veh_passenger" depart="73.83" departLane="best" from="155112335#19" to="304104749#14"/>
    <trip id="veh92" type="veh_passenger" depart="74.64" departLane="best" from="300090399#11" to="232361466#8"/>
    <trip id="veh93" type="veh_passenger" depart="75.45" departLane="best" from="226831230#12" to="518982585"/>
    <trip id="veh94" type="veh_passenger" depart="76.26" departLane="best" from="303873196#7" to="51268702#2"/>
    <trip id="veh95" type="veh_passenger" depart="77.08" departLane="best" from="338922081#7" to="-30688296#8"/>
    <trip id="veh96" type="veh_passenger" depart="77.89" departLane="best" from="763092083" to="518982588#13"/>
    <trip id="veh97" type="veh_passenger" depart="78.70" departLane="best" from="51268670#10" to="-51797018#4"/>
    <trip id="veh98" type="veh_passenger" depart="79.51" departLane="best" from="310677990#15" to="196961202#2"/>
    <trip id="veh99" type="veh_passenger" depart="80.32" departLane="best" from="296214427#1" to="-309158949#9"/>
    <trip id="veh100" type="veh_passenger" depart="81.13" departLane="best" from="277597488#0" to="906806093#2"/>
    <trip id="veh101" type="veh_passenger" depart="81.94" departLane="best" from="304594482#1" to="300090399#0"/>
    <trip id="veh102" type="veh_passenger" depart="82.76" departLane="best" from="668037880#0" to="910567291#3-AddedOnRampEdge"/>
    <trip id="veh104" type="veh_passenger" depart="84.38" departLane="best" from="-51354541#3" to="241518669#14"/>
    <trip id="veh105" type="veh_passenger" depart="85.19" departLane="best" from="763092078" to="374332363"/>
    <trip id="veh106" type="veh_passenger" depart="86.00" departLane="best" from="336062767" to="49153907#12"/>
    <trip id="veh108" type="veh_passenger" depart="87.62" departLane="best" from="312715996#3" to="51268675#7"/>
    <trip id="veh109" type="veh_passenger" depart="88.43" departLane="best" from="-51420623#4" to="668037883#2"/>
    <trip id="veh110" type="veh_passenger" depart="89.25" departLane="best" departSpeed="max" from="-338325576" to="-824879308"/>
    <trip id="veh111" type="veh_passenger" depart="90.06" departLane="best" from="377740861#0" to="48768115#1"/>
    <trip id="veh112" type="veh_passenger" depart="90.87" departLane="best" from="198643103#3" to="-49153890#0"/>
    <trip id="veh113" type="veh_passenger" depart="91.68" departLane="best" from="51796983" to="198922266#0"/>
    <trip id="veh114" type="veh_passenger" depart="92.49" departLane="best" from="377740857" to="451352710#2"/>
    <trip id="veh115" type="veh_passenger" depart="93.30" departLane="best" from="299836295#1" to="374332377#2"/>
    <trip id="veh116" type="veh_passenger" depart="94.11" departLane="best" from="326969440#1" to="551458785"/>
    <trip id="veh117" type="veh_passenger" depart="94.92" departLane="best" from="182973463#1" to="48810794#2"/>
    <trip id="veh118" type="veh_passenger" depart="95.74" departLane="best" from="198645495#0" to="289004418#3"/>
    <trip id="veh119" type="veh_passenger" depart="96.55" departLane="best" from="48768134#3" to="241518669#6"/>
    <trip id="veh120" type="veh_passenger" depart="97.36" departLane="best" from="-330187856#3" to="304481581#0"/>
    <trip id="veh121" type="veh_passenger" depart="98.17" departLane="best" from="-330187858#0" to="190680558#1"/>
    <trip id="veh122" type="veh_passenger" depart="98.98" departLane="best" from="231534776#3" to="54755738#5"/>
    <trip id="veh123" type="veh_passenger" depart="99.79" departLane="best" from="268564473#4" to="-51420580#0"/>
    <trip id="veh124" type="veh_passenger" depart="100.60" departLane="best" departSpeed="max" from="506359617#0" to="48794868#2"/>
    <trip id="veh125" type="veh_passenger" depart="101.42" departLane="best" from="437870657#3" to="906806102#2"/>
    <trip id="veh126" type="veh_passenger" depart="102.23" departLane="best" from="506322865#5" to="241518669#4"/>
    <trip id="veh127" type="veh_passenger" depart="103.04" departLane="best" from="48742279#1" to="584601725#4"/>
    <trip id="veh129" type="veh_passenger" depart="104.66" departLane="best" from="-48768098#1" to="338922081#12"/>
    <trip id="veh130" type="veh_passenger" depart="105.47" departLane="best" from="232361464#3" to="387549847#3"/>
    <trip id="veh131" type="veh_passenger" depart="106.28" departLane="best" from="49073194#7" to="182973460#4"/>
    <trip id="veh132" type="veh_passenger" depart="107.09" departLane="best" from="48740801#4" to="226973673#2"/>
    <trip id="veh133" type="veh_passenger" depart="107.91" departLane="best" from="310677990#7" to="518977867#4"/>
    <trip id="veh134" type="veh_passenger" depart="108.72" departLane="best" from="51268665#0" to="-431945134#2"/>
    <trip id="veh135" type="veh_passenger" depart="109.53" departLane="best" from="300090399#2" to="232361463#8"/>
    <trip id="veh136" type="veh_passenger" depart="110.34" departLane="best" from="-18487156#8" to="49710835#2"/>
    <trip id="veh137" type="veh_passenger" depart="111.15" departLane="best" from="48740803#12" to="226831245#0"/>
    <trip id="veh138" type="veh_passenger" depart="111.96" departLane="best" from="49153852" to="338325576"/>
    <trip id="veh140" type="veh_passenger" depart="113.59" departLane="best" from="-330187863#0" to="51420791#11"/>
    <trip id="veh141" type="veh_passenger" depart="114.40" departLane="best" from="518977865#1" to="335596319#3"/>
    <trip id="veh142" type="veh_passenger" depart="115.21" departLane="best" from="506359630#1" to="374332377#0"/>
    <trip id="veh143" type="veh_passenger" depart="116.02" departLane="best" from="-51268690#0" to="-49710840#0"/>
    <trip id="veh144" type="veh_passenger" depart="116.83" departLane="best" from="245644141#4" to="518974814#1"/>
    <trip id="veh145" type="veh_passenger" depart="117.64" departLane="best" from="506316041#1" to="51268701#4"/>
    <trip id="veh146" type="veh_passenger" depart="118.45" departLane="best" from="518973332" to="18487156#18"/>
    <trip id="veh147" type="veh_passenger" depart="119.26" departLane="best" from="226831230#12" to="-468226875#17"/>
    <trip id="veh148" type="veh_passenger" depart="120.08" departLane="best" from="49730071#2" to="51420791#4"/>
    <trip id="veh149" type="veh_passenger" depart="120.89" departLane="best" from="296493635#0" to="452116335#0"/>
    <trip id="veh150" type="veh_passenger" depart="121.70" departLane="best" from="-51354541#1" to="518982588#4"/>
    <trip id="veh152" type="veh_passenger" depart="123.32" departLane="best" from="506322859#2" to="51420787#9"/>
    <trip id="veh153" type="veh_passenger" depart="124.13" departLane="best" departSpeed="max" from="-262090930#1" to="49153775#4"/>
    <trip id="veh154" type="veh_passenger" depart="124.94" departLane="best" from="252657382#2" to="518982588#7"/>
    <trip id="veh156" type="veh_passenger" depart="126.57" departLane="best" from="506322859#2" to="229070522#2"/>
    <trip id="veh157" type="veh_passenger" depart="127.38" departLane="best" departSpeed="max" from="50212589#0" to="-48776405#2"/>
    <trip id="veh158" type="veh_passenger" depart="128.19" departLane="best" departSpeed="max" from="51420623#0" to="51268695#7"/>
    <trip id="veh159" type="veh_passenger" depart="129.00" departLane="best" from="196961216#3" to="506322861#5"/>
    <trip id="veh160" type="veh_passenger" depart="129.81" departLane="best" from="30620450#5" to="244618569#0"/>
    <trip id="veh161" type="veh_passenger" depart="130.62" departLane="best" from="506316037#5" to="196961378#1"/>
    <trip id="veh162" type="veh_passenger" depart="131.43" departLane="best" from="-258857824#3" to="155112335#19"/>
    <trip id="veh164" type="veh_passenger" depart="133.06" departLane="best" departSpeed="max" from="763092061" to="232361469#0"/>
    <trip id="veh165" type="veh_passenger" depart="133.87" departLane="best" from="48740803#3" to="289004430#9"/>
    <trip id="veh168" type="veh_passenger" depart="136.30" departLane="best" from="764011473" to="-767884495"/>
    <trip id="veh170" type="veh_passenger" depart="137.93" departLane="best" from="-48776349#5" to="303422776#0"/>
    <trip id="veh172" type="veh_passenger" depart="139.55" departLane="best" from="405980657#6" to="317385447#0"/>
    <trip id="veh173" type="veh_passenger" depart="140.36" departLane="best" from="287735319#1" to="368877191#6"/>
    <trip id="veh174" type="veh_passenger" depart="141.17" departLane="best" from="226831230#8" to="48794904#0"/>
    <trip id="veh175" type="veh_passenger" depart="141.98" departLane="best" from="-18487156#10" to="518982588#10"/>
    <trip id="veh176" type="veh_passenger" depart="142.79" departLane="best" from="334841512#3" to="48810831#8"/>
    <trip id="veh177" type="veh_passenger" depart="143.60" departLane="best" from="49153873#2" to="48742279#3"/>
    <trip id="veh178" type="veh_passenger" depart="144.42" departLane="best" from="264861661#16" to="-317388748#1"/>
    <trip id="veh179" type="veh_passenger" depart="145.23" departLane="best" from="48742279#3" to="252657371#1"/>
    <trip id="veh180" type="veh_passenger" depart="146.04" departLane="best" from="245644142#8" to="51268665#2"/>
    <trip id="veh181" type="veh_passenger" depart="146.85" departLane="best" from="49073226#2" to="241518669#7"/>
    <trip id="veh182" type="veh_passenger" depart="147.66" departLane="best" from="245644142#1" to="296214428#7"/>
    <trip id="veh183" type="veh_passenger" depart="148.47" departLane="best" from="296214427#7" to="241518668#1"/>
    <trip id="veh184" type="veh_passenger" depart="149.28" departLane="best" from="-49730012#1" to="299836291"/>
    <trip id="veh185" type="veh_passenger" depart="150.09" departLane="best" departSpeed="max" from="593847702#0" to="48768134#3"/>
    <trip id="veh186" type="veh_passenger" depart="150.91" departLane="best" from="518977863#0" to="431945140#1"/>
    <trip id="veh187" type="veh_passenger" depart="151.72" departLane="best" from="244509947#1" to="336696224#2"/>
    <trip id="veh188" type="veh_passenger" depart="152.53" departLane="best" from="-136814139#2" to="235520227#5"/>
    <trip id="veh189" type="veh_passenger" depart="153.34" departLane="best" from="303420707#0" to="374332369#3"/>
    <trip id="veh190" type="veh_passenger" depart="154.15" departLane="best" from="48742276#19" to="30620450#5"/>
    <trip id="veh191" type="veh_passenger" depart="154.96" departLane="best" from="303850635#1" to="196961202#1"/>
    <trip id="veh192" type="veh_passenger" depart="155.77" departLane="best" from="309157015#2" to="518974823#0"/>
    <trip id="veh193" type="veh_passenger" depart="156.59" departLane="best" from="506316041#1" to="-518978930#1"/>
    <trip id="veh194" type="veh_passenger" depart="157.40" departLane="best" from="-374332367#0" to="317388746#1"/>
    <trip id="veh195" type="veh_passenger" depart="158.21" departLane="best" from="48740801#1" to="252657383#6"/>
    <trip id="veh196" type="veh_passenger" depart="159.02" departLane="best" from="506322865#9" to="49188543#3"/>
    <trip id="veh197" type="veh_passenger" depart="159.83" departLane="best" from="48768137#1" to="196961216#2"/>
    <trip id="veh198" type="veh_passenger" depart="160.64" departLane="best" from="160185687" to="-258857824#4"/>
    <trip id="veh199" type="veh_passenger" depart="161.45" departLane="best" from="219066658#2" to="309157014#1"/>
    <trip id="veh200" type="veh_passenger" depart="162.26" departLane="best" from="51268671#2" to="-330187855#1"/>
    <trip id="veh201" type="veh_passenger" depart="163.08" departLane="best" from="297240245#10" to="461526485#2"/>
    <trip id="veh202" type="veh_passenger" depart="163.89" departLane="best" from="160053377#0" to="48776405#3"/>
    <trip id="veh203" type="veh_passenger" depart="164.70" departLane="best" from="311346862#1" to="198922264#1"/>
    <trip id="veh204" type="veh_passenger" depart="165.51" departLane="best" from="48742276#22" to="-198922266#0"/>
    <trip id="veh205" type="veh_passenger" depart="166.32" departLane="best" from="-771782812" to="668037881#0"/>
    <trip id="veh206" type="veh_passenger" depart="167.13" departLane="best" from="324294418" to="-30688296#5"/>
    <trip id="veh207" type="veh_passenger" depart="167.94" departLane="best" from="226831230#12" to="51268665#2"/>
    <trip id="veh208" type="veh_passenger" depart="168.76" departLane="best" from="48768070#17" to="906806102#4"/>
    <trip id="veh209" type="veh_passenger" depart="169.57" departLane="best" from="377740862#1" to="668037873#10"/>
    <trip id="veh210" type="veh_passenger" depart="170.38" departLane="best" from="51797018#2" to="405980657#3"/>
    <trip id="veh212" type="veh_passenger" depart="172.00" departLane="best" from="506339439#2" to="336696224#2"/>
    <trip id="veh213" type="veh_passenger" depart="172.81" departLane="best" departSpeed="max" from="51813001" to="49153881#1"/>
    <trip id="veh214" type="veh_passenger" depart="173.62" departLane="best" from="309158949#0" to="226831230#8"/>
    <trip id="veh215" type="veh_passenger" depart="174.43" departLane="best" from="226831227" to="472093921#1"/>
    <trip id="veh216" type="veh_passenger" depart="175.25" departLane="best" from="49710758#5" to="324741383#2"/>
    <trip id="veh217" type="veh_passenger" depart="176.06" departLane="best" from="465196147#4" to="232359746"/>
    <trip id="veh218" type="veh_passenger" depart="176.87" departLane="best" departSpeed="max" from="-333599230" to="235514242#0"/>
    <trip id="veh219" type="veh_passenger" depart="177.68" departLane="best" from="232361463#5" to="245649054#4"/>
    <trip id="veh220" type="veh_passenger" depart="178.49" departLane="best" from="335596319#2" to="-49730078#3"/>
    <trip id="veh221" type="veh_passenger" depart="179.30" departLane="best" from="196961379#7" to="48776382#11"/>
    <trip id="veh222" type="veh_passenger" depart="180.11" departLane="best" from="48794914" to="-311346862#2"/>
    <trip id="veh223" type="veh_passenger" depart="180.93" departLane="best" from="296493635#2" to="334814745#4"/>
    <trip id="veh224" type="veh_passenger" depart="181.74" departLane="best" from="297603932#1" to="182973462#5"/>
    <trip id="veh225" type="veh_passenger" depart="182.55" departLane="best" from="300077510#5" to="518977867#1"/>
    <trip id="veh226" type="veh_passenger" depart="183.36" departLane="best" from="374427266" to="48776405#18"/>
    <trip id="veh227" type="veh_passenger" depart="184.17" departLane="best" from="51268699#2" to="49698562#5"/>
    <trip id="veh228" type="veh_passenger" depart="184.98" departLane="best" from="287735311#8" to="-218906242#1"/>
    <trip id="veh229" type="veh_passenger" depart="185.79" departLane="best" departSpeed="max" from="25878628#0" to="49188550#0"/>
    <trip id="veh230" type="veh_passenger" depart="186.60" departLane="best" from="51268689#4" to="668037874"/>
    <trip id="veh231" type="veh_passenger" depart="187.42" departLane="best" from="299836294" to="49153905#3"/>
    <trip id="veh233" type="veh_passenger" depart="189.04" departLane="best" from="303647014#6" to="-290486792#8"/>
    <trip id="veh234" type="veh_passenger" depart="189.85" departLane="best" from="255431326#6" to="48768137#2"/>
    <trip id="veh235" type="veh_passenger" depart="190.66" departLane="best" from="296214428#5" to="-51796987"/>
    <trip id="veh236" type="veh_passenger" depart="191.47" departLane="best" from="308448931" to="-49710843#0"/>
    <trip id="veh237" type="veh_passenger" depart="192.28" departLane="best" from="455330018" to="-287735311#8"/>
    <trip id="veh238" type="veh_passenger" depart="193.10" departLane="best" from="289004430#2" to="353392316#1"/>
    <trip id="veh239" type="veh_passenger" depart="193.91" departLane="best" from="-287735311#10" to="48740803#10"/>
    <trip id="veh240" type="veh_passenger" depart="194.72" departLane="best" from="-49730072#2" to="304850037#10"/>
    <trip id="veh241" type="veh_passenger" depart="195.53" departLane="best" from="-30688296#4" to="268569321#3"/>
    <trip id="veh242" type="veh_passenger" depart="196.34" departLane="best" from="196961202#6" to="252494925#1"/>
    <trip id="veh243" type="veh_passenger" depart="197.15" departLane="best" from="49695756#1" to="268569321#3"/>
    <trip id="veh244" type="veh_passenger" depart="197.96" departLane="best" from="49188548#0" to="506339435#1"/>
    <trip id="veh245" type="veh_passenger" depart="198.77" departLane="best" from="226831230#5" to="-374332363"/>
    <trip id="veh246" type="veh_passenger" depart="199.59" departLane="best" from="-256670505#2" to="333599312"/>
    <trip id="veh247" type="veh_passenger" depart="200.40" departLane="best" from="910959595#1-AddedOnRampEdge" to="25715404#3"/>
    <trip id="veh248" type="veh_passenger" depart="201.21" departLane="best" from="48742275#0" to="49730060#1"/>
    <trip id="veh249" type="veh_passenger" depart="202.02" departLane="best" from="48742276#0" to="49188550#5"/>
    <trip id="veh250" type="veh_passenger" depart="202.83" departLane="best" from="667116548" to="160053377#2-AddedOnRampEdge"/>
    <trip id="veh251" type="veh_passenger" depart="203.64" departLane="best" from="-256670505#9" to="-51268702#4"/>
    <trip id="veh252" type="veh_passenger" depart="204.45" departLane="best" from="-49710859#2" to="48742279#0"/>
    <trip id="veh253" type="veh_passenger" depart="205.26" departLane="best" from="35928058#9" to="196961209#6"/>
    <trip id="veh254" type="veh_passenger" depart="206.08" departLane="best" from="48794859#4" to="49710759"/>
    <trip id="veh256" type="veh_passenger" depart="207.70" departLane="best" from="49153907#4" to="-49073240#1"/>
    <trip id="veh257" type="veh_passenger" depart="208.51" departLane="best" from="506322867#0" to="756268867"/>
    <trip id="veh258" type="veh_passenger" depart="209.32" departLane="best" from="-48776349#3" to="-27595287#3"/>
    <trip id="veh259" type="veh_passenger" depart="210.13" departLane="best" from="245644142#20" to="48768134#3"/>
    <trip id="veh260" type="veh_passenger" depart="210.94" departLane="best" from="668037881#0" to="289004418#6"/>
    <trip id="veh261" type="veh_passenger" depart="211.76" departLane="best" from="48810831#5" to="-330187859#4"/>
    <trip id="veh262" type="veh_passenger" depart="212.57" departLane="best" from="48776405#23" to="454543628"/>
    <trip id="veh263" type="veh_passenger" depart="213.38" departLane="best" from="-463073084#2" to="49710843#0"/>
    <trip id="veh264" type="veh_passenger" depart="214.19" departLane="best" from="51268675#1" to="377740860"/>
    <trip id="veh265" type="veh_passenger" depart="215.00" departLane="best" from="-49695710#0" to="906806092#0"/>
    <trip id="veh266" type="veh_passenger" depart="215.81" departLane="best" from="49730077#4" to="255993706#1"/>
    <trip id="veh267" type="veh_passenger" depart="216.62" departLane="best" from="30337330" to="268564476#6"/>
    <trip id="veh268" type="veh_passenger" depart="217.43" departLane="best" from="313682488" to="255431333#15"/>
    <trip id="veh269" type="veh_passenger" depart="218.25" departLane="best" from="51268670#8" to="506322867#1"/>
    <trip id="veh270" type="veh_passenger" depart="219.06" departLane="best" from="-48742258#1" to="668037883#2"/>
    <trip id="veh271" type="veh_passenger" depart="219.87" departLane="best" from="48740801#7" to="506322872"/>