<?xml version="1.0" encoding="UTF-8"?>

<!-- generated on 2021-06-06 21:51:53 by Eclipse SUMO polyconvert Version 1.9.2
<configuration xmlns:xsi="http://www.w3.org/2001/XMLSchema-instance" xsi:noNamespaceSchemaLocation="http://sumo.dlr.de/xsd/polyconvertConfiguration.xsd">

    <input>
        <net-file value="osm.net.xml"/>
        <osm-files value="osm_bbox.osm.xml"/>
        <osm.keep-full-type value="true"/>
        <type-file value="D:\SUMO\data\typemap\osmPolyconvert.typ.xml"/>
    </input>

    <output>
        <output-file value="osm.poly.xml"/>
    </output>

    <processing>
        <poi-layer-offset value="5"/>
    </processing>

    <report>
        <verbose value="true"/>
    </report>

</configuration>
-->

<additional xmlns:xsi="http://www.w3.org/2001/XMLSchema-instance" xsi:noNamespaceSchemaLocation="http://sumo.dlr.de/xsd/additional_file.xsd">
    <location netOffset="-350658.81,-2768060.53" convBoundary="0.00,-2579.26,8265.89,7052.64" origBoundary="121.519592,24.998027,121.601392,25.084770" projParameter="+proj=utm +zone=51 +ellps=WGS84 +datum=WGS84 +units=m +no_defs"/>

    <poly id="106335655" type="landuse.recreation_ground" color="194,194,130" fill="0" layer="-3.00" shape="4020.895590,1949.768870 4017.961064,1961.330667 4018.830206,2004.120750 3969.962518,2005.338751 3969.854071,1978.091876"/>
    <poly id="106335655#1" type="leisure.park" color="207,245,201" fill="0" layer="-2.00" shape="4020.895590,1949.768870 4017.961064,1961.330667 4018.830206,2004.120750 3969.962518,2005.338751 3969.854071,1978.091876"/>
    <poly id="106335681" type="landuse.recreation_ground" color="194,194,130" fill="1" layer="-3.00" shape="3934.747650,1943.043239 3929.379589,1944.972321 3920.527566,1948.555669 3908.795887,1947.052380 3892.236280,1930.924246 3889.009857,1918.863145 3895.131765,1919.495750 3897.329481,1917.401047 3898.850475,1913.353023 3893.729013,1909.065612 3890.553303,1905.554979 3893.521060,1898.068925 3900.738726,1893.572548 3902.316198,1888.194751 3909.375935,1891.608637 3914.489772,1887.599885 3927.120051,1886.302352 3933.039191,1892.530734 3944.309069,1895.201990 3946.170830,1891.881388 3950.383614,1894.229042 3954.334885,1896.657016 3954.640920,1899.810541 3949.440108,1903.233152 3950.051627,1912.331470 3960.497801,1911.566738 3963.236711,1911.016985 3966.871634,1908.375324 3964.288384,1901.745890 3972.584465,1889.539950 3989.165601,1884.943943 3996.232742,1889.055609 4003.470247,1886.419918 4011.910177,1887.725720 4018.071243,1894.881982 4018.397677,1902.798156 4025.210456,1904.819098 4025.536696,1913.665694 4019.012919,1916.991593 4019.786632,1923.319077 4024.505112,1926.724708 4023.461038,1938.609753 4016.203755,1939.384805 4006.597441,1938.468016 3995.622514,1941.697310 3985.419009,1929.234173 3976.591654,1936.084768 3971.589215,1934.443330 3966.487173,1932.924794 3961.153957,1937.179544 3954.045864,1934.907021 3949.789756,1936.071058 3939.293426,1939.705131 3934.747650,1943.043239"/>
    <poly id="106335681#1" type="leisure.park" color="207,245,201" fill="1" layer="-2.00" shape="3934.747650,1943.043239 3929.379589,1944.972321 3920.527566,1948.555669 3908.795887,1947.052380 3892.236280,1930.924246 3889.009857,1918.863145 3895.131765,1919.495750 3897.329481,1917.401047 3898.850475,1913.353023 3893.729013,1909.065612 3890.553303,1905.554979 3893.521060,1898.068925 3900.738726,1893.572548 3902.316198,1888.194751 3909.375935,1891.608637 3914.489772,1887.599885 3927.120051,1886.302352 3933.039191,1892.530734 3944.309069,1895.201990 3946.170830,1891.881388 3950.383614,1894.229042 3954.334885,1896.657016 3954.640920,1899.810541 3949.440108,1903.233152 3950.051627,1912.331470 3960.497801,1911.566738 3963.236711,1911.016985 3966.871634,1908.375324 3964.288384,1901.745890 3972.584465,1889.539950 3989.165601,1884.943943 3996.232742,1889.055609 4003.470247,1886.419918 4011.910177,1887.725720 4018.071243,1894.881982 4018.397677,1902.798156 4025.210456,1904.819098 4025.536696,1913.665694 4019.012919,1916.991593 4019.786632,1923.319077 4024.505112,1926.724708 4023.461038,1938.609753 4016.203755,1939.384805 4006.597441,1938.468016 3995.622514,1941.697310 3985.419009,1929.234173 3976.591654,1936.084768 3971.589215,1934.443330 3966.487173,1932.924794 3961.153957,1937.179544 3954.045864,1934.907021 3949.789756,1936.071058 3939.293426,1939.705131 3934.747650,1943.043239"/>
    <poly id="106335681#2" type="natural.water" color="181,209,209" fill="1" layer="-4.00" shape="3934.747650,1943.043239 3929.379589,1944.972321 3920.527566,1948.555669 3908.795887,1947.052380 3892.236280,1930.924246 3889.009857,1918.863145 3895.131765,1919.495750 3897.329481,1917.401047 3898.850475,1913.353023 3893.729013,1909.065612 3890.553303,1905.554979 3893.521060,1898.068925 3900.738726,1893.572548 3902.316198,1888.194751 3909.375935,1891.608637 3914.489772,1887.599885 3927.120051,1886.302352 3933.039191,1892.530734 3944.309069,1895.201990 3946.170830,1891.881388 3950.383614,1894.229042 3954.334885,1896.657016 3954.640920,1899.810541 3949.440108,1903.233152 3950.051627,1912.331470 3960.497801,1911.566738 3963.236711,1911.016985 3966.871634,1908.375324 3964.288384,1901.745890 3972.584465,1889.539950 3989.165601,1884.943943 3996.232742,1889.055609 4003.470247,1886.419918 4011.910177,1887.725720 4018.071243,1894.881982 4018.397677,1902.798156 4025.210456,1904.819098 4025.536696,1913.665694 4019.012919,1916.991593 4019.786632,1923.319077 4024.505112,1926.724708 4023.461038,1938.609753 4016.203755,1939.384805 4006.597441,1938.468016 3995.622514,1941.697310 3985.419009,1929.234173 3976.591654,1936.084768 3971.589215,1934.443330 3966.487173,1932.924794 3961.153957,1937.179544 3954.045864,1934.907021 3949.789756,1936.071058 3939.293426,1939.705131 3934.747650,1943.043239"/>
    <poly id="111507105" type="building.hospital" color="255,230,230" fill="1" layer="-1.00" shape="3360.725446,1757.667043 3360.479657,1743.170584 3360.459149,1742.196074 3360.272729,1731.365289 3415.582596,1730.419692 3415.716956,1738.271465 3430.538165,1738.013405 3430.389582,1729.774109 3492.196961,1728.715093 3492.653563,1755.404471 3433.065993,1756.428697 3412.403032,1756.782410 3360.725446,1757.667043"/>
    <poly id="111562542" type="building.apartments" color="255,230,230" fill="1" layer="-1.00" shape="3254.462043,1539.456196 3254.099100,1525.337589 3226.879986,1526.027528 3227.242958,1540.146136 3254.462043,1539.456196"/>
    <poly id="111876773" type="building.commercial" color="255,230,230" fill="1" layer="-1.00" shape="2986.249273,2010.741107 2986.714495,2041.905343 2990.343394,2045.311232 2996.126056,2051.009023 2999.970279,2054.733825 3045.327055,2008.380072 3042.860033,2006.047215 3044.407349,2004.479929 3040.960664,2001.127456 3039.352098,2002.628939 3031.816534,1995.321670 2998.015595,1995.694973 2992.417023,1990.227813 2982.386146,1990.191334 2980.420403,1992.261554 2980.438337,2002.407420 2980.795756,2002.802342 2978.330390,2005.332053 2985.030894,2011.928274 2986.249273,2010.741107"/>
    <poly id="115493218" type="landuse.retail" color="194,194,130" fill="1" layer="-3.00" shape="4840.102154,1788.619522 4835.207207,1630.245729 4891.951792,1628.504531 4896.846080,1786.878313 4840.102154,1788.619522"/>
    <poly id="115493242" type="leisure.pitch" color="207,245,201" fill="1" layer="-2.00" shape="4838.413430,877.394389 4837.870895,826.105427 4875.213872,825.466787 4875.307342,877.247852 4838.413430,877.394389"/>
    <poly id="115493242#1" type="sport.tennis" color="79,230,125" fill="1" layer="-2.00" shape="4838.413430,877.394389 4837.870895,826.105427 4875.213872,825.466787 4875.307342,877.247852 4838.413430,877.394389"/>
    <poly id="115493256" type="amenity.parking" color="184,184,179" fill="1" layer="-1.00" shape="4646.048019,922.528823 4642.877269,834.693434 4659.954241,821.508885 4733.045363,818.287100 4685.623357,922.109684 4646.048019,922.528823"/>
    <poly id="115493282" type="leisure.track" color="207,245,201" fill="1" layer="-2.00" shape="4818.985020,1005.044736 4816.846454,886.849167 4826.249273,886.594622 4826.220367,904.848798 4831.775299,901.456044 4838.015677,898.942151 4846.058496,897.959888 4852.556249,898.788345 4859.746471,901.160174 4867.626096,905.739991 4871.447467,914.006859 4872.830518,975.122754 4868.631825,979.841391 4863.462216,984.359848 4856.860121,987.974119 4846.588969,990.087587 4839.190857,989.047132 4832.006080,986.232203 4826.103808,978.729478 4827.055338,1004.759979 4818.985020,1005.044736"/>
    <poly id="115493282#1" type="sport.running" color="79,230,125" fill="1" layer="-2.00" shape="4818.985020,1005.044736 4816.846454,886.849167 4826.249273,886.594622 4826.220367,904.848798 4831.775299,901.456044 4838.015677,898.942151 4846.058496,897.959888 4852.556249,898.788345 4859.746471,901.160174 4867.626096,905.739991 4871.447467,914.006859 4872.830518,975.122754 4868.631825,979.841391 4863.462216,984.359848 4856.860121,987.974119 4846.588969,990.087587 4839.190857,989.047132 4832.006080,986.232203 4826.103808,978.729478 4827.055338,1004.759979 4818.985020,1005.044736"/>
    <poly id="119412478" type="leisure.pitch" color="207,245,201" fill="1" layer="-2.00" shape="1852.419167,2468.450839 1853.584255,2434.322497 1869.927191,2434.876999 1868.762063,2469.005338 1852.419167,2468.450839"/>
    <poly id="119412478#1" type="sport.volleyball" color="79,230,125" fill="1" layer="-2.00" shape="1852.419167,2468.450839 1853.584255,2434.322497 1869.927191,2434.876999 1868.762063,2469.005338 1852.419167,2468.450839"/>
    <poly id="119414169" type="leisure.pitch" color="207,245,201" fill="1" layer="-2.00" shape="1789.974283,2484.942924 1790.487612,2450.278860 1809.208803,2450.541747 1808.695546,2485.216883 1789.974283,2484.942924"/>
    <poly id="119414169#1" type="sport.basketball" color="79,230,125" fill="1" layer="-2.00" shape="1789.974283,2484.942924 1790.487612,2450.278860 1809.208803,2450.541747 1808.695546,2485.216883 1789.974283,2484.942924"/>
    <poly id="136053365" type="amenity.arts_centre" color="237,199,199" fill="1" layer="-1.00" shape="3270.256028,3041.987994 3270.191387,3038.776506 3269.940702,3022.895512 3269.885320,3019.606390 3319.207618,3018.768476 3319.588334,3041.149970 3270.256028,3041.987994"/>
    <poly id="136053365#1" type="building.yes" color="255,230,230" fill="1" layer="-1.00" shape="3270.256028,3041.987994 3270.191387,3038.776506 3269.940702,3022.895512 3269.885320,3019.606390 3319.207618,3018.768476 3319.588334,3041.149970 3270.256028,3041.987994"/>
    <poly id="136814399" type="amenity.conference_centre" color="237,199,199" fill="1" layer="-1.00" shape="4095.213598,1386.927151 4099.813940,1386.800694 4100.013699,1394.197618 4104.481526,1398.691438 4106.146185,1398.651583 4106.275627,1402.283272 4108.488886,1404.486097 4113.150000,1404.381151 4113.260673,1408.145956 4114.718890,1409.570385 4119.278981,1409.455438 4119.389182,1413.175943 4120.877433,1414.577900 4128.364050,1414.465069 4128.393327,1419.116853 4130.094414,1420.605160 4165.916658,1419.448985 4167.415363,1418.037426 4167.383862,1413.175213 4174.727097,1412.864556 4176.313673,1411.175153 4176.264854,1407.531531 4180.673591,1407.418213 4182.119258,1405.763538 4182.029491,1402.064970 4185.702347,1402.025933 4187.329522,1400.358254 4185.649359,1355.261870 4184.273280,1353.969478 4183.364917,1353.956979 4182.942872,1339.883341 4181.423996,1338.448473 4109.536447,1340.719089 4108.109666,1342.251730 4108.311219,1353.613992 4096.356448,1353.951572 4096.320406,1353.409211 4093.323468,1353.430005 4093.320445,1354.094623 4085.198457,1354.247458 4080.797752,1358.913129 4081.191594,1369.376158 4085.768897,1373.724815 4090.461352,1373.719215 4090.615886,1382.556555 4095.213598,1386.927151"/>
    <poly id="136814399#1" type="building.commercial" color="255,230,230" fill="1" layer="-1.00" shape="4095.213598,1386.927151 4099.813940,1386.800694 4100.013699,1394.197618 4104.481526,1398.691438 4106.146185,1398.651583 4106.275627,1402.283272 4108.488886,1404.486097 4113.150000,1404.381151 4113.260673,1408.145956 4114.718890,1409.570385 4119.278981,1409.455438 4119.389182,1413.175943 4120.877433,1414.577900 4128.364050,1414.465069 4128.393327,1419.116853 4130.094414,1420.605160 4165.916658,1419.448985 4167.415363,1418.037426 4167.383862,1413.175213 4174.727097,1412.864556 4176.313673,1411.175153 4176.264854,1407.531531 4180.673591,1407.418213 4182.119258,1405.763538 4182.029491,1402.064970 4185.702347,1402.025933 4187.329522,1400.358254 4185.649359,1355.261870 4184.273280,1353.969478 4183.364917,1353.956979 4182.942872,1339.883341 4181.423996,1338.448473 4109.536447,1340.719089 4108.109666,1342.251730 4108.311219,1353.613992 4096.356448,1353.951572 4096.320406,1353.409211 4093.323468,1353.430005 4093.320445,1354.094623 4085.198457,1354.247458 4080.797752,1358.913129 4081.191594,1369.376158 4085.768897,1373.724815 4090.461352,1373.719215 4090.615886,1382.556555 4095.213598,1386.927151"/>
    <poly id="137077752" type="amenity.exhibition_centre" color="237,199,199" fill="1" layer="-1.00" shape="4389.325952,1514.160755 4389.165237,1509.477140 4387.954650,1509.512142 4387.645896,1500.388459 4388.856483,1500.353457 4388.679918,1495.127267 4380.428142,1495.403150 4379.852885,1478.285130 4388.114761,1478.009140 4387.940312,1472.982302 4386.729840,1473.028379 4386.404648,1463.306745 4387.615120,1463.260668 4387.464966,1458.621247 4379.203078,1458.897237 4378.642143,1442.177816 4386.904041,1441.901826 4386.730532,1436.963590 4385.530147,1437.009560 4385.219747,1427.730826 4386.420251,1427.695931 4386.240042,1422.126411 4377.978132,1422.402401 4377.460869,1406.945227 4385.722788,1406.669238 4385.533664,1401.210577 4384.323186,1401.256653 4383.848897,1386.995276 4376.807535,1387.225082 4376.305535,1372.255108 4376.232749,1370.151364 4384.484600,1369.875482 4384.320124,1364.837463 4383.109642,1364.883539 4382.813564,1356.003404 4384.024164,1355.968403 4383.864154,1351.351240 4374.563136,1351.660410 4374.251790,1342.293075 4372.879862,1342.340866 4372.672768,1336.140277 4364.945357,1336.388445 4364.843101,1333.409977 4220.485472,1338.210599 4220.587877,1341.200143 4215.725526,1341.362572 4215.932691,1347.563162 4212.179922,1347.680574 4212.491497,1357.058985 4205.369395,1357.289736 4207.273854,1414.002895 4217.734976,1413.659128 4238.868999,1412.958292 4240.615738,1465.286866 4292.742701,1516.127699 4389.325952,1514.160755"/>
    <poly id="137077752#1" type="building.public" color="255,230,230" fill="1" layer="-1.00" shape="4389.325952,1514.160755 4389.165237,1509.477140 4387.954650,1509.512142 4387.645896,1500.388459 4388.856483,1500.353457 4388.679918,1495.127267 4380.428142,1495.403150 4379.852885,1478.285130 4388.114761,1478.009140 4387.940312,1472.982302 4386.729840,1473.028379 4386.404648,1463.306745 4387.615120,1463.260668 4387.464966,1458.621247 4379.203078,1458.897237 4378.642143,1442.177816 4386.904041,1441.901826 4386.730532,1436.963590 4385.530147,1437.009560 4385.219747,1427.730826 4386.420251,1427.695931 4386.240042,1422.126411 4377.978132,1422.402401 4377.460869,1406.945227 4385.722788,1406.669238 4385.533664,1401.210577 4384.323186,1401.256653 4383.848897,1386.995276 4376.807535,1387.225082 4376.305535,1372.255108 4376.232749,1370.151364 4384.484600,1369.875482 4384.320124,1364.837463 4383.109642,1364.883539 4382.813564,1356.003404 4384.024164,1355.968403 4383.864154,1351.351240 4374.563136,1351.660410 4374.251790,1342.293075 4372.879862,1342.340866 4372.672768,1336.140277 4364.945357,1336.388445 4364.843101,1333.409977 4220.485472,1338.210599 4220.587877,1341.200143 4215.725526,1341.362572 4215.932691,1347.563162 4212.179922,1347.680574 4212.491497,1357.058985 4205.369395,1357.289736 4207.273854,1414.002895 4217.734976,1413.659128 4238.868999,1412.958292 4240.615738,1465.286866 4292.742701,1516.127699 4389.325952,1514.160755"/>
    <poly id="137077756" type="building.commercial" color="255,230,230" fill="1" layer="-1.00" shape="4171.412255,1499.749978 4150.795348,1463.649566 4152.544948,1457.361714 4188.145396,1437.245125 4195.229985,1439.185738 4215.425219,1474.548572 4213.666210,1480.902974 4177.413868,1501.391953 4171.412255,1499.749978"/>
    <poly id="137077760" type="building.commercial" color="255,230,230" fill="1" layer="-1.00" shape="4350.948054,1554.022313 4343.934540,1547.362318 4337.810524,1547.493797 4337.872544,1550.483770 4325.816227,1550.744702 4325.740821,1547.444732 4317.760452,1547.618085 4310.161849,1556.183309 4310.450130,1570.025763 4307.393172,1570.091457 4307.497962,1575.207647 4304.521726,1575.272484 4304.603254,1579.148362 4300.920709,1579.220701 4301.066031,1586.252680 4297.625652,1586.322448 4289.786567,1586.494319 4288.937187,1546.428877 4307.411173,1527.125863 4352.640335,1526.169329 4372.286177,1545.001120 4373.220076,1593.051747 4358.096403,1593.345214 4358.009717,1588.982028 4353.903391,1589.058852 4353.605725,1573.377815 4351.325590,1573.424176 4350.948054,1554.022313"/>
    <poly id="137077760#1" type="tourism.hotel" color="207,245,201" fill="1" layer="-2.00" shape="4350.948054,1554.022313 4343.934540,1547.362318 4337.810524,1547.493797 4337.872544,1550.483770 4325.816227,1550.744702 4325.740821,1547.444732 4317.760452,1547.618085 4310.161849,1556.183309 4310.450130,1570.025763 4307.393172,1570.091457 4307.497962,1575.207647 4304.521726,1575.272484 4304.603254,1579.148362 4300.920709,1579.220701 4301.066031,1586.252680 4297.625652,1586.322448 4289.786567,1586.494319 4288.937187,1546.428877 4307.411173,1527.125863 4352.640335,1526.169329 4372.286177,1545.001120 4373.220076,1593.051747 4358.096403,1593.345214 4358.009717,1588.982028 4353.903391,1589.058852 4353.605725,1573.377815 4351.325590,1573.424176 4350.948054,1554.022313"/>
    <poly id="137077767" type="building.roof" color="255,230,230" fill="1" layer="-1.00" shape="4230.600781,1481.974665 4182.000027,1509.428992 4177.413868,1501.391953 4213.666210,1480.902974 4215.425219,1474.548572 4195.229985,1439.185738 4218.158928,1426.015902 4217.734976,1413.659128 4238.868999,1412.958292 4240.615738,1465.286866 4292.742701,1516.127699 4389.325952,1514.160755 4396.649655,1513.916879 4396.967120,1524.812695 4273.333618,1527.199815 4230.600781,1481.974665"/>
    <poly id="137077767#1" type="man_made.canopy" color="255,230,230" fill="1" layer="-1.00" shape="4230.600781,1481.974665 4182.000027,1509.428992 4177.413868,1501.391953 4213.666210,1480.902974 4215.425219,1474.548572 4195.229985,1439.185738 4218.158928,1426.015902 4217.734976,1413.659128 4238.868999,1412.958292 4240.615738,1465.286866 4292.742701,1516.127699 4389.325952,1514.160755 4396.649655,1513.916879 4396.967120,1524.812695 4273.333618,1527.199815 4230.600781,1481.974665"/>
    <poly id="138840351" type="amenity.school" color="237,199,199" fill="0" layer="-1.00" shape="2043.004710,1746.507324 2044.239632,1793.635694 2129.188555,1791.855679 2135.785418,1791.596263 2135.156937,1775.420241 2217.182525,1772.985549 2215.365372,1687.682723 2215.076101,1673.009457 2236.546069,1671.670514 2233.423955,1534.532602 2230.364008,1405.036835 2083.926374,1407.866586 1997.363649,1410.882566 2003.902691,1667.156012 2004.218355,1675.836603 2046.229520,1674.995730 2046.409757,1686.092462"/>
    <poly id="139031419" type="amenity.school" color="237,199,199" fill="0" layer="-1.00" shape="3270.479295,1690.622587 3227.274888,1753.456371 3219.186065,1763.290214 3219.329832,1769.181357 3214.921083,1769.283916 3211.200152,1774.252761 3206.387677,1781.891642 3203.966721,1785.750008 3199.144283,1793.400075 3198.514317,1792.996988 3196.376968,1796.010509 3196.897099,1798.408536 3195.050628,1798.428297 3195.124977,1803.489448 3191.210411,1803.564573 3177.333881,1823.251991 3147.231754,1824.172360 3125.542900,1824.836561 3121.548924,1825.034398 3114.456253,1825.165730 3091.215557,1826.034903 3089.145988,1759.055475 3086.361812,1677.174771"/>
    <poly id="139031421" type="building.school" color="255,230,230" fill="1" layer="-1.00" shape="3114.818844,1612.116981 3090.548115,1612.952857 3090.487473,1611.059430 3088.217782,1611.139119 3088.278306,1613.021471 3088.661868,1624.337518 3087.965767,1624.356049 3088.286078,1633.535014 3088.941699,1633.505840 3090.188517,1669.834393 3100.931752,1669.464584 3099.655769,1632.294532 3099.161471,1632.310901 3099.075194,1629.908231 3103.372405,1629.751449 3103.171371,1624.171061 3115.216032,1623.765176 3114.818844,1612.116981"/>
    <poly id="139046713" type="building.office" color="255,230,230" fill="1" layer="-1.00" shape="2043.508134,1348.755066 2080.781584,1347.378400 2080.581925,1341.964136 2086.634365,1341.732732 2086.165258,1329.110561 2080.717997,1329.313286 2080.604436,1326.268468 2042.644900,1327.663607 2042.743005,1330.210148 2039.565486,1330.333029 2040.007409,1342.301980 2043.265767,1342.189304 2043.508134,1348.755066"/>
    <poly id="139046714" type="building.yes" color="255,230,230" fill="1" layer="-1.00" shape="2003.842394,1365.044485 2010.884397,1364.868831 2036.277799,1364.218330 2035.102207,1317.909005 2025.235344,1318.159419 2009.375617,1318.552020 2002.666572,1318.724081 2003.842394,1365.044485"/>
    <poly id="139118150" type="amenity.school" color="237,199,199" fill="0" layer="-1.00" shape="2112.008674,1256.923219 2133.385318,1256.227597 2129.225083,1129.590358"/>
    <poly id="139118546" type="building.school" color="255,230,230" fill="1" layer="-1.00" shape="2663.062437,955.407284 2713.825877,954.618617 2714.206837,978.827716 2663.443607,979.627461 2663.062437,955.407284"/>
    <poly id="139118547" type="amenity.school" color="237,199,199" fill="0" layer="-1.00" shape="2654.720554,985.857501 2659.008550,1075.043617 2659.475079,1086.535999 2660.079620,1101.482763 2839.548731,1094.738449 2838.112523,978.705613"/>
    <poly id="139120609" type="building.school" color="255,230,230" fill="1" layer="-1.00" shape="2045.646880,1560.160625 2045.214625,1547.216833 2051.920809,1546.790057 2175.045253,1542.970504 2182.469994,1542.735426 2182.902238,1555.690291 2045.646880,1560.160625"/>
    <poly id="139120614" type="building.school" color="255,230,230" fill="1" layer="-1.00" shape="2109.731237,1447.264466 2056.002921,1449.017890 2043.018487,1449.324071 2042.615423,1434.408345 2108.702407,1432.333336 2177.352637,1429.322753 2178.375359,1444.630552 2167.291244,1445.226281 2109.731237,1447.264466"/>
    <poly id="139120616" type="amenity.school" color="237,199,199" fill="0" layer="-1.00" shape="2043.004710,1746.507324 1927.832436,1748.315018 1927.868642,1759.147474 1918.165262,1780.120410 1915.253903,1785.258122 1913.031394,1788.771224 1881.537604,1787.926084 1879.197125,1695.473386 2006.379625,1693.768333 2006.289649,1685.428680 2046.409757,1686.092462"/>
    <poly id="139120617" type="building.school" color="255,230,230" fill="1" layer="-1.00" shape="2057.325951,1501.517405 2056.970972,1490.123493 2110.962070,1488.422614 2168.978352,1486.601036 2169.371809,1497.828382 2111.366739,1499.749529 2057.325951,1501.517405"/>
    <poly id="139120620" type="building.school" color="255,230,230" fill="1" layer="-1.00" shape="2169.741124,1502.133167 2174.808584,1502.277937 2180.022028,1501.922693 2178.375359,1444.630552 2167.291244,1445.226281 2168.978352,1486.601036 2169.371809,1497.828382 2169.741124,1502.133167"/>
    <poly id="139121355" type="building.school" color="255,230,230" fill="1" layer="-1.00" shape="2052.359115,1701.579733 2083.288616,1700.614813 2081.571295,1646.170073 2076.426508,1646.336317 2076.256875,1640.899574 2059.450364,1641.424191 2059.710456,1646.826729 2055.241351,1646.952464 2055.692032,1655.055618 2050.898612,1655.051934 2052.359115,1701.579733"/>
    <poly id="139123643" type="building.school" color="255,230,230" fill="1" layer="-1.00" shape="2192.602752,1451.976055 2225.791725,1450.865307 2224.634612,1416.518432 2191.445675,1417.640254 2192.602752,1451.976055"/>
    <poly id="139123645" type="amenity.library" color="237,199,199" fill="1" layer="-1.00" shape="2043.859291,1633.008042 2068.023221,1632.559132 2066.584730,1602.103133 2045.592173,1602.805826 2045.869696,1606.081484 2041.623517,1606.293430 2042.090859,1613.133680 2053.417479,1612.579532 2053.899394,1622.642894 2042.975673,1623.126237 2043.859291,1633.008042"/>
    <poly id="139123645#1" type="building.school" color="255,230,230" fill="1" layer="-1.00" shape="2043.859291,1633.008042 2068.023221,1632.559132 2066.584730,1602.103133 2045.592173,1602.805826 2045.869696,1606.081484 2041.623517,1606.293430 2042.090859,1613.133680 2053.417479,1612.579532 2053.899394,1622.642894 2042.975673,1623.126237 2043.859291,1633.008042"/>
    <poly id="139123646" type="building.school" color="255,230,230" fill="1" layer="-1.00" shape="2077.086218,1592.408697 2174.493787,1589.187670 2174.132751,1578.159351 2076.715013,1581.380485 2077.086218,1592.408697"/>
    <poly id="139123648" type="building.school" color="255,230,230" fill="1" layer="-1.00" shape="2000.401246,1474.495495 2029.902626,1473.933570 2029.847563,1470.699820 2033.581688,1470.726002 2032.693661,1436.110375 2028.242397,1436.025468 2028.037174,1432.904103 2023.466259,1432.953407 2023.396088,1429.254605 2007.425615,1429.659488 2007.466595,1433.458293 2002.968463,1433.706195 2003.074700,1437.005853 1998.959165,1437.172094 2000.401246,1474.495495"/>
    <poly id="139190393" type="amenity.school" color="237,199,199" fill="1" layer="-1.00" shape="2782.110653,2068.346410 2909.743557,2065.725376 2906.636696,1988.677425 2779.866772,1991.854083 2782.110653,2068.346410"/>
    <poly id="139190767" type="amenity.hospital" color="237,199,199" fill="1" layer="-1.00" shape="2492.555720,1845.596478 2648.220657,1840.777616 2645.250772,1754.069480 2643.615399,1751.196082 2493.186897,1756.025083 2489.208654,1758.626536 2492.555720,1845.596478"/>
    <poly id="139190845" type="landuse.residential" color="235,235,227" fill="0" layer="-3.00" shape="2082.739994,2185.905469 2174.010599,2181.986093"/>
    <poly id="139190903" type="leisure.park" color="207,245,201" fill="0" layer="-2.00" shape="1461.339592,2599.563573 1495.038448,2574.974115 1508.773338,2569.519696 1526.969150,2562.277968 1582.059513,2550.649314 1610.078246,2538.239396 1612.190813,2537.640554 1642.490955,2532.771305 1670.805432,2522.507169"/>
    <poly id="139191756" type="shop.mall" color="237,199,255" fill="1" layer="-1.00" shape="2467.362197,2794.282704 2489.627489,2793.876999 2489.861121,2803.400290 2499.605111,2803.085010 2554.256173,2808.821887 2614.677317,2807.839971 2617.808446,2804.372596 2616.140750,2683.955620 2560.962410,2677.083257 2547.516571,2716.006716 2536.413196,2716.591338 2529.316923,2735.110055 2465.534936,2737.933963 2467.362197,2794.282704"/>
    <poly id="139191769" type="landuse.residential" color="235,235,227" fill="1" layer="-3.00" shape="2625.124636,2805.368377 2656.505374,2804.377601 2657.452239,2692.483611 2647.394406,2687.075591 2624.128378,2685.453707 2624.387756,2717.096508 2625.124636,2805.368377"/>
    <poly id="139192050" type="amenity.school" color="237,199,199" fill="1" layer="-1.00" shape="4294.793886,1198.999370 4269.700499,1078.732392 4320.250749,1032.272839 4369.177688,1003.984946 4393.903325,1019.295975 4415.839658,1032.332748 4429.452528,1035.112496 4430.939336,1082.038503 4431.306991,1093.864198 4431.713730,1106.520208 4432.732407,1138.808184 4434.401987,1191.547368 4304.889800,1198.460183 4294.793886,1198.999370"/>
    <poly id="139192071" type="amenity.school" color="237,199,199" fill="0" layer="-1.00" shape="5229.421475,1508.016998 5098.975368,1511.243870"/>
    <poly id="139206030" type="building.school" color="255,230,230" fill="1" layer="-1.00" shape="2199.239133,1510.632229 2224.105768,1509.821589 2222.584143,1463.183710 2197.646671,1463.984034 2197.976884,1474.026874 2208.024539,1473.708171 2208.910638,1500.692088 2198.923664,1501.021214 2199.239133,1510.632229"/>
    <poly id="139206047" type="building.school" color="255,230,230" fill="1" layer="-1.00" shape="2049.339668,1745.353494 2100.638688,1743.958462 2101.175923,1763.835027 2105.779146,1763.984771 2119.123058,1763.353537 2118.226914,1730.776073 2114.040359,1730.898745 2114.092305,1724.484879 2103.943454,1724.760447 2103.770432,1731.175619 2057.777681,1732.413716 2057.840125,1730.718335 2048.970689,1730.791844 2049.339668,1745.353494"/>
    <poly id="139211591" type="building.retail" color="255,230,230" fill="1" layer="-1.00" shape="2515.051954,2312.262545 2527.288558,2311.931576 2530.549030,2311.099006 2533.952545,2310.431047 2537.720954,2309.914235 2541.148697,2309.622618 2545.546952,2309.497791 2549.887647,2309.650497 2554.150600,2310.080953 2557.263691,2310.557002 2559.407698,2310.999164 2571.169969,2310.662257 2571.336796,2315.855346 2571.350100,2316.154268 2572.247157,2316.997516 2572.963195,2317.898092 2573.415355,2318.657510 2573.704413,2319.263610 2573.985168,2320.035948 2576.688954,2319.984729 2577.317132,2320.221659 2577.866735,2320.658811 2578.226182,2321.242002 2578.373390,2321.794245 2578.359878,2322.414675 2578.045463,2323.204487 2577.589435,2323.962591 2576.426925,2325.647641 2575.372901,2327.098917 2574.478287,2328.360180 2574.132650,2329.061715 2573.949996,2329.905494 2574.010268,2332.696125 2573.707579,2332.699379 2574.650197,2362.185985 2561.616798,2362.547634 2559.597835,2363.411155 2557.024659,2364.347094 2554.107483,2365.198121 2550.694487,2365.921560 2547.409442,2366.344560 2544.404286,2366.520867 2541.931974,2366.514221 2539.528741,2366.362839 2536.608675,2366.006560 2533.463898,2365.397939 2530.893515,2364.716683 2528.311254,2363.869407 2514.642805,2364.293313 2514.508404,2360.240756 2514.225428,2350.817689 2513.580476,2330.255546 2515.615060,2328.029439 2514.453049,2326.945362 2513.776294,2325.944678 2513.247548,2324.632259 2513.016965,2322.895727 2513.183809,2321.520446 2513.743077,2320.041255 2514.348540,2319.104317 2515.217288,2318.253159 2515.051954,2312.262545"/>