<?xml version="1.0" encoding="UTF-8"?>

<!-- generated on 11/10/20 21:56:30 by Eclipse SUMO polyconvert Version 1.7.0
<configuration xmlns:xsi="http://www.w3.org/2001/XMLSchema-instance" xsi:noNamespaceSchemaLocation="http://sumo.dlr.de/xsd/polyconvertConfiguration.xsd">

    <input>
        <net-file value="osm.net.xml"/>
        <osm-files value="osm_bbox.osm.xml"/>
        <osm.keep-full-type value="true"/>
        <type-file value="D:\SUMO\data\typemap\osmPolyconvert.typ.xml"/>
    </input>

    <output>
        <output-file value="osm.poly.xml"/>
    </output>

    <processing>
        <poi-layer-offset value="5"/>
    </processing>

    <report>
        <verbose value="true"/>
    </report>

</configuration>
-->

<additional xmlns:xsi="http://www.w3.org/2001/XMLSchema-instance" xsi:noNamespaceSchemaLocation="http://sumo.dlr.de/xsd/additional_file.xsd">
    <location netOffset="-348777.88,-2770256.21" convBoundary="-3898.11,0.00,12364.90,9946.75" origBoundary="121.461465,25.040743,121.623376,25.130177" projParameter="+proj=utm +zone=51 +ellps=WGS84 +datum=WGS84 +units=m +no_defs"/>

    <poly id="106270574" type="amenity.school" color="237,199,199" fill="1" layer="-1.00" shape="2523.750392,2620.113007 2524.284978,2519.232256 2524.084896,2463.862341 2566.444344,2463.400604 2579.647705,2463.090559 2621.426582,2462.125795 2654.696749,2461.763362 2656.195167,2505.776638 2658.845753,2605.548193 2659.464928,2624.416026 2523.186145,2629.434610 2523.750392,2620.113007"/>
    <poly id="106270575" type="amenity.school" color="237,199,199" fill="1" layer="-1.00" shape="2518.453296,2308.219500 2674.992932,2305.827098 2675.334495,2398.335353 2654.755324,2399.523155 2655.136406,2412.279278 2519.732323,2415.360905 2519.214226,2365.986921 2518.453296,2308.219500"/>
    <poly id="134900817" type="leisure.park" color="207,245,201" fill="1" layer="-2.00" shape="3695.503718,2577.425916 3694.079296,2604.302027 3728.421171,2604.196436 3743.544156,2604.154742 3790.008219,2604.538519 3923.118529,2602.291679 4048.108559,2598.306129 4045.628108,2507.748781 4043.378131,2405.824405 3688.892659,2412.079819 3695.503718,2577.425916"/>
    <poly id="134901832" type="amenity.school" color="237,199,199" fill="1" layer="-1.00" shape="4209.445874,2588.391613 4205.112053,2504.566669 4063.594004,2508.429977 4065.404827,2592.104925 4177.188450,2589.060575 4209.445874,2588.391613"/>
    <poly id="134912228" type="amenity.school" color="237,199,199" fill="1" layer="-1.00" shape="4221.874676,2500.320901 4224.760261,2599.557861 4225.882037,2651.217890 4226.784823,2690.984064 4334.272117,2688.164485 4332.201195,2595.177015 4330.852240,2498.028075 4221.874676,2500.320901"/>
    <poly id="134913082" type="landuse.religious" color="194,194,130" fill="1" layer="-3.00" shape="3295.630349,2512.871708 3340.525557,2511.819957 3375.627078,2510.099151 3373.869884,2469.921243 3372.349722,2438.579888 3363.996067,2430.219002 3301.492985,2432.945867 3293.941669,2441.822579 3295.630349,2512.871708"/>
    <poly id="134969647" type="amenity.townhall" color="237,199,199" fill="1" layer="-1.00" shape="3302.056403,2649.553690 3301.112216,2593.195122 3328.468814,2592.743377 3329.412887,2649.101942 3302.056403,2649.553690"/>
    <poly id="134969647#1" type="building.office" color="255,230,230" fill="1" layer="-1.00" shape="3302.056403,2649.553690 3301.112216,2593.195122 3328.468814,2592.743377 3329.412887,2649.101942 3302.056403,2649.553690"/>
    <poly id="134969906" type="building.commercial" color="255,230,230" fill="1" layer="-1.00" shape="3214.329130,2452.145664 3213.682625,2432.547097 3241.793142,2430.879669 3250.584018,2438.615452 3249.863510,2450.320156 3246.414746,2450.479414 3226.116677,2451.530388 3214.329130,2452.145664"/>
    <poly id="135029953" type="amenity.school" color="237,199,199" fill="1" layer="-1.00" shape="4459.658178,2281.324650 4456.852818,2200.629037 4457.076570,2184.853643 4515.235617,2183.386212 4617.544879,2180.934941 4618.974717,2277.362906 4459.658178,2281.324650"/>
    <poly id="135031294" type="building.retail" color="255,230,230" fill="1" layer="-1.00" shape="3620.722641,3002.390669 3619.625588,2991.447798 3621.293138,2986.124063 3621.035798,2960.484549 3628.090389,2959.787904 3626.921548,2947.804611 3620.452653,2941.095756 3617.305982,2931.869788 3617.061673,2927.940244 3616.472215,2918.221381 3626.913518,2910.709209 3632.208254,2907.738763 3639.614721,2907.857985 3647.134150,2910.025157 3653.083843,2913.505280 3657.421053,2918.077282 3726.159374,2915.594619 3728.270617,2909.313515 3733.640735,2903.982982 3740.649046,2901.802637 3749.575296,2900.653829 3756.217591,2901.944419 3760.371091,2904.458195 3764.553690,2909.663267 3766.794239,2920.937151 3764.099310,2928.287911 3764.829897,2941.738055 3767.831091,2997.232500 3759.233960,2998.023290 3757.673064,3001.086229 3724.702252,3002.871693 3722.189059,3010.231575 3718.642630,3012.540636 3715.290453,3012.288905 3712.351434,3010.127534 3675.159378,3011.526796 3671.650431,3013.569625 3667.295012,3013.838285 3662.334803,3009.494554 3662.722906,3005.270175 3629.535469,3006.615151 3629.633900,3002.659744 3620.722641,3002.390669"/>
    <poly id="135130400" type="leisure.park" color="207,245,201" fill="1" layer="-2.00" shape="4173.866718,2937.841801 4173.886471,2936.866851 4174.236122,2919.705489 4173.201500,2886.442661 4239.809878,2885.713509 4220.433381,2906.679833 4182.894556,2936.758642 4173.866718,2937.841801"/>
    <poly id="135130569" type="building.commercial" color="255,230,230" fill="1" layer="-1.00" shape="3707.543458,2372.523026 3707.127271,2345.234847 3774.217482,2344.022078 3774.593542,2371.343915 3707.543458,2372.523026"/>
    <poly id="136053052" type="shop.funeral_directors" color="237,199,255" fill="1" layer="-1.00" shape="3564.284764,2490.676287 3566.057428,2548.177796 3479.592337,2550.808859 3478.236726,2506.694416 3476.553978,2451.938918 3475.729352,2425.175740 3486.309362,2424.850685 3509.557235,2424.144760 3592.855979,2421.592513 3621.328226,2420.719468 3622.293472,2456.774367 3622.349364,2460.074583 3623.427660,2488.862024 3564.284764,2490.676287"/>
    <poly id="136053076" type="amenity.marketplace" color="237,199,199" fill="1" layer="-1.00" shape="3889.211004,2325.976352 3888.101120,2325.035755 3888.021529,2321.403501 3888.969805,2321.393259 3888.641916,2307.850161 3896.983060,2299.197884 3896.295557,2298.130883 3896.178288,2296.614660 3896.507167,2295.304073 3897.544004,2294.151989 3898.747634,2293.496548 3900.371811,2293.479006 3901.699926,2294.073873 3902.455175,2294.874306 3902.899128,2295.811019 3902.985295,2297.250042 3902.694974,2298.394063 3904.988829,2300.595679 3915.025606,2300.409749 3915.510284,2320.065415 3910.386038,2320.165061 3910.401707,2321.615922 3910.090492,2322.693710 3909.545816,2323.641100 3909.177463,2324.099217 3908.338560,2324.894713 3907.606918,2325.345678 3906.612509,2325.755174 3905.442536,2325.789962 3889.211004,2325.976352"/>
    <poly id="136053076#1" type="building.retail" color="255,230,230" fill="1" layer="-1.00" shape="3889.211004,2325.976352 3888.101120,2325.035755 3888.021529,2321.403501 3888.969805,2321.393259 3888.641916,2307.850161 3896.983060,2299.197884 3896.295557,2298.130883 3896.178288,2296.614660 3896.507167,2295.304073 3897.544004,2294.151989 3898.747634,2293.496548 3900.371811,2293.479006 3901.699926,2294.073873 3902.455175,2294.874306 3902.899128,2295.811019 3902.985295,2297.250042 3902.694974,2298.394063 3904.988829,2300.595679 3915.025606,2300.409749 3915.510284,2320.065415 3910.386038,2320.165061 3910.401707,2321.615922 3910.090492,2322.693710 3909.545816,2323.641100 3909.177463,2324.099217 3908.338560,2324.894713 3907.606918,2325.345678 3906.612509,2325.755174 3905.442536,2325.789962 3889.211004,2325.976352"/>
    <poly id="136053134" type="leisure.park" color="207,245,201" fill="1" layer="-2.00" shape="3915.464198,2286.836222 3885.994685,2286.944047 3884.624241,2253.474395 3915.095220,2252.669009 3915.464198,2286.836222"/>
    <poly id="136053169" type="building.commercial" color="255,230,230" fill="1" layer="-1.00" shape="4172.186295,2440.456073 4171.996034,2427.487481 4174.830629,2427.445845 4174.750753,2421.908429 4171.885893,2421.950392 4171.689663,2408.428036 4203.475528,2407.963548 4203.672563,2421.563429 4200.636208,2421.607234 4200.713925,2426.945294 4203.770455,2426.901272 4203.961999,2439.991691 4172.186295,2440.456073"/>
    <poly id="172955197" type="leisure.pitch" color="207,245,201" fill="1" layer="-2.00" shape="3091.289294,3800.364604 3090.264113,3758.938090 3145.704082,3757.571490 3146.729094,3798.997999 3091.289294,3800.364604"/>
    <poly id="172955197#1" type="sport.tennis" color="79,230,125" fill="1" layer="-2.00" shape="3091.289294,3800.364604 3090.264113,3758.938090 3145.704082,3757.571490 3146.729094,3798.997999 3091.289294,3800.364604"/>
    <poly id="183801913" type="leisure.park" color="207,245,201" fill="1" layer="-2.00" shape="2106.863930,3773.680296 2179.338749,3926.930988 2259.668280,3887.960256 2291.639412,3864.117313 2345.620652,3812.342401 2375.596520,3762.801463 2386.819665,3706.896871 2362.296763,3664.552716 2350.476195,3631.562581 2345.381354,3613.064812 2316.741389,3611.295186 2297.325217,3567.322467 2247.100509,3550.270374 2168.451246,3497.662944 2138.149585,3538.623475 2087.285319,3520.316206 2070.339446,3581.423279 2049.606727,3602.529646 2061.325895,3645.545064 2140.751238,3744.244478 2116.560880,3769.265404 2106.863930,3773.680296"/>
    <poly id="183802052" type="historic.archaeological_site" color="128,255,128" fill="1" layer="-1.00" shape="2088.035619,3783.489738 2114.929906,3766.802069 2132.538944,3746.970536 2078.929532,3681.462425 2060.590203,3647.458302 2048.395283,3610.750717 2033.603359,3619.751765 2035.543256,3635.692025 2028.430734,3635.670169 2045.233364,3678.585640 2060.907202,3718.843999 2081.874050,3775.404714 2088.035619,3783.489738"/>
    <poly id="183802204" type="amenity.place_of_worship" color="237,199,199" fill="1" layer="-1.00" shape="2031.282213,3615.988943 2039.453346,3614.105105 2037.400564,3601.677386 2043.036768,3584.790243 2056.654853,3591.132168 2064.764051,3573.442612 2079.635533,3528.364013 2084.736782,3509.599713 2082.397034,3505.981083 2043.839332,3484.803410 2011.314944,3474.736173 2015.261429,3518.235388 2019.604384,3551.872026 2019.563590,3562.893764 2026.088991,3596.838820 2031.282213,3615.988943"/>
    <poly id="189517608" type="leisure.park" color="207,245,201" fill="0" layer="-2.00" shape="2520.718624,3403.275741 2515.580912,3267.055789 2466.429466,3270.770932 2437.237641,3092.744320"/>
    <poly id="196648768" type="building.commercial" color="255,230,230" fill="1" layer="-1.00" shape="2399.224896,2897.833527 2399.478975,2900.777142 2395.181387,2900.801889 2395.309051,2906.028673 2392.292356,2906.017289 2392.914400,2926.037079 2396.061383,2925.969504 2396.202530,2933.356087 2419.277134,2932.561527 2419.094683,2925.086782 2433.820232,2924.704575 2433.892663,2926.719735 2431.693677,2926.754804 2430.840819,2927.185022 2430.171352,2927.779388 2430.166523,2929.186175 2430.456470,2929.869764 2431.188218,2930.360229 2434.386122,2930.336414 2435.119378,2930.040421 2435.638981,2929.580609 2435.876130,2929.123879 2437.681939,2929.115253 2437.687744,2931.496669 2486.469710,2929.867937 2486.362919,2925.626747 2488.994949,2925.520504 2488.569418,2909.630163 2485.814279,2909.549446 2485.550444,2898.309532 2481.126248,2897.826107 2471.370448,2896.913467 2457.330166,2896.302334 2399.224896,2897.833527"/>
    <poly id="197818897" type="amenity.school" color="237,199,199" fill="1" layer="-1.00" shape="1537.535657,2330.002990 1536.339109,2255.902049 1533.382278,2149.188533 1605.803786,2167.523449 1634.683321,2173.365361 1697.270391,2188.297289 1701.442989,2322.279286 1537.535657,2330.002990"/>
    <poly id="198313382" type="amenity.school" color="237,199,199" fill="1" layer="-1.00" shape="1553.387951,2639.112176 1706.023724,2633.383953 1709.393529,2722.658264 1711.096781,2767.588753 1620.363398,2770.998477 1555.618607,2773.425742 1552.333590,2686.454423 1550.544016,2639.220923 1553.387951,2639.112176"/>
    <poly id="204424033" type="building.apartments" color="255,230,230" fill="1" layer="-1.00" shape="3371.884742,2370.552502 3406.674366,2370.740352 3406.664749,2390.334944 3372.259596,2391.173052 3371.884742,2370.552502"/>
    <poly id="204624007" type="amenity.parking" color="184,184,179" fill="1" layer="-1.00" shape="4088.791348,2370.465455 4116.141054,2350.631421 4140.700044,2333.031773 4142.146101,2335.209338 4147.402279,2341.732135 4133.265065,2350.878738 4119.127224,2350.610293 4118.081754,2369.673242 4088.791348,2370.465455"/>
    <poly id="204763182" type="building.yes" color="255,230,230" fill="1" layer="-1.00" shape="3299.310897,2521.992136 3317.233396,2521.454396 3317.940522,2537.352720 3299.675655,2537.949557 3299.310897,2521.992136"/>
    <poly id="204763543" type="building.apartments" color="255,230,230" fill="1" layer="-1.00" shape="3298.190358,2549.839778 3312.789581,2549.869750 3313.257140,2577.168491 3298.838566,2577.047948 3298.190358,2549.839778"/>
    <poly id="205085128" type="leisure.park" color="207,245,201" fill="1" layer="-2.00" shape="3097.484732,2991.670857 3096.159192,2955.088125 3133.423494,2953.819426 3134.476690,2990.416189 3097.484732,2991.670857"/>
    <poly id="207722899" type="building.office" color="255,230,230" fill="1" layer="-1.00" shape="3799.702093,2368.225837 3799.378100,2343.849808 3812.522441,2343.674521 3812.511908,2342.699897 3824.808974,2342.544854 3824.829798,2344.471952 3827.139956,2344.446988 3827.127988,2343.339461 3834.310544,2343.250772 3834.320716,2344.192170 3836.509817,2344.168516 3836.500004,2343.260344 3836.489234,2342.263569 3848.735740,2342.098018 3848.745911,2343.039416 3862.071834,2342.862215 3862.387421,2367.404478 3837.036855,2367.733759 3837.122098,2374.688923 3825.188229,2374.840031 3825.093012,2367.896051 3799.702093,2368.225837"/>
    <poly id="208555116" type="building.apartments" color="255,230,230" fill="1" layer="-1.00" shape="3292.315652,2261.192028 3321.135451,2260.702288 3321.795830,2294.622730 3292.427743,2294.786121 3292.315652,2261.192028"/>
    <poly id="210340847" type="waterway.river" color="181,209,209" fill="0" layer="-4.00" shape="7125.540413,3657.713078 7059.495006,3767.525257 6969.865554,3838.288186 6863.778727,3836.187978 6779.847087,3780.022290 6451.466185,3554.267295 6288.266895,3484.724214 6081.435172,3498.687738 5778.547154,3669.968108 5610.066873,3739.056367 5581.952797,3747.686224 5413.168247,3813.623481 5231.527471,3833.821659 5123.116399,3849.349382 4501.871326,3912.767001 3354.815246,4000.593287 3188.813881,4013.305546 2919.876319,4008.552800 2844.553871,3978.413299 2807.204227,3948.425607 2774.799588,3904.726656 2757.525915,3859.079631 2761.100101,3802.848901 2772.220486,3717.913963 2755.397908,3634.966979 2740.670632,3603.625407 2713.868476,3577.001105 2685.876852,3563.438092 2665.444288,3553.846816 2641.884597,3551.688846 2614.303587,3553.595572 2591.384032,3561.111700 2561.155508,3576.494448 2526.152373,3609.186765 2501.820968,3639.857577 2463.050595,3715.579670 2425.971450,3786.310028 2307.931410,3969.355952 2206.049758,4045.757485 2143.405760,4105.957456 1695.802885,4308.424375 1583.131512,4390.199698 1452.204051,4587.762193 1401.944310,4770.083638 1342.312939,5157.638426 1341.925047,5347.940950 1192.466399,5789.587560 1068.999425,5916.359069 883.242458,6099.114517 806.971803,6128.711956 694.354241,6172.424581 113.917140,6196.409201 -68.009498,6290.344426 -183.373163,6360.712682 -299.844098,6505.508468 -305.792628,6649.839336 -300.111534,6930.119754 -326.184056,7268.962533 -342.163393,7572.092198 -344.151419,7585.572708 -371.024758,7767.997583 -379.960371,7828.665352 -505.944069,7986.319520 -542.449456,8013.743052 -561.392269,8027.966553 -708.442052,8138.448843 -935.705081,8240.923778 -1004.309323,8253.964281 -1110.964263,8274.232277 -1319.247703,8254.788412 -1511.337505,8174.043495 -1648.659497,8104.726412 -1947.054061,7936.056953 -2332.871310,7836.779850 -2817.869686,7790.675138 -3232.715563,7804.260520 -3573.494899,7971.097286 -3754.968903,8138.786425 -3805.536145,8201.692881 -3898.107044,8316.874565"/>
    <poly id="211853511" type="amenity.university" color="237,199,199" fill="1" layer="-1.00" shape="1939.968418,3080.268203 1942.295733,3079.976884 2121.806592,3074.590200 2166.776799,3073.168121 2165.942422,3059.597255 2207.088700,3048.912719 2200.618173,3022.731749 2189.103600,2974.430437 2187.655142,2971.134346 2172.929753,2910.606276 2157.167052,2813.337206 2121.818633,2798.869826 2072.753545,2788.495831 2068.074804,2800.720252 2059.079936,2824.190388 2022.826340,2918.805078 2021.458901,2922.918405 1909.644323,2878.727865 1939.968418,3080.268203"/>
    <poly id="211853512" type="building.university" color="255,230,230" fill="1" layer="-1.00" shape="1982.692912,3077.374749 2031.547194,3075.942945 2031.079923,3059.975503 2030.355646,3035.271383 1981.500975,3036.681034 1982.692912,3077.374749"/>
    <poly id="211853512#1" type="leisure.sports_centre" color="207,245,201" fill="1" layer="-2.00" shape="1982.692912,3077.374749 2031.547194,3075.942945 2031.079923,3059.975503 2030.355646,3035.271383 1981.500975,3036.681034 1982.692912,3077.374749"/>
    <poly id="211853512#2" type="sport.multi" color="79,230,125" fill="1" layer="-2.00" shape="1982.692912,3077.374749 2031.547194,3075.942945 2031.079923,3059.975503 2030.355646,3035.271383 1981.500975,3036.681034 1982.692912,3077.374749"/>
    <poly id="211853513" type="building.university" color="255,230,230" fill="1" layer="-1.00" shape="2042.512189,3062.896513 2042.918408,3076.051149 2107.938549,3074.032937 2107.505920,3060.302605 2089.614464,3060.852717 2089.723837,3064.396053 2049.493292,3065.633615 2049.400417,3062.677161 2042.512189,3062.896513"/>
    <poly id="211853514" type="building.apartments" color="255,230,230" fill="1" layer="-1.00" shape="2071.906396,2821.735080 2119.234173,2830.089955 2119.833252,2826.749330 2121.088184,2819.724085 2122.371869,2819.942660 2123.854742,2811.618953 2122.611407,2811.399937 2124.522076,2800.678995 2077.163818,2792.313353 2071.906396,2821.735080"/>
    <poly id="211853515" type="building.university" color="255,230,230" fill="1" layer="-1.00" shape="2115.660171,2980.262090 2154.441359,2971.010005 2147.286834,2941.336307 2139.329054,2908.326242 2100.547692,2917.578362 2108.959920,2952.466473 2115.660171,2980.262090"/>
    <poly id="211853516" type="building.apartments" color="255,230,230" fill="1" layer="-1.00" shape="2285.897108,2926.518698 2339.138402,2925.815483 2338.947200,2911.074550 2346.734633,2910.967379 2346.611685,2901.553569 2285.572650,2902.352986 2285.897108,2926.518698"/>
    <poly id="211853517" type="building.university" color="255,230,230" fill="1" layer="-1.00" shape="2136.603130,2877.695849 2130.186956,2878.652127 2131.883534,2889.876388 2145.410713,2887.845475 2149.903041,2887.176074 2139.975014,2821.600017 2128.371499,2823.332984 2130.644143,2838.339165 2133.319329,2856.021497 2133.569629,2857.691336 2136.603130,2877.695849"/>
    <poly id="211853518" type="building.university" color="255,230,230" fill="1" layer="-1.00" shape="1941.700815,2987.847646 1968.992146,2985.178507 1963.013972,2924.754251 1935.732607,2927.423285 1941.700815,2987.847646"/>
    <poly id="211853519" type="building.university" color="255,230,230" fill="1" layer="-1.00" shape="2199.611864,3030.352410 2142.381607,3049.121532 2142.791069,3072.732498 2166.531711,3071.974520 2165.196103,3058.697127 2199.092125,3050.185309 2203.981731,3048.946672 2199.611864,3030.352410"/>
    <poly id="211853520" type="building.university" color="255,230,230" fill="1" layer="-1.00" shape="1942.396852,3020.095292 1984.352050,3014.186347 1980.800371,2989.258405 1938.845218,2995.178433 1942.396852,3020.095292"/>
    <poly id="216617725" type="leisure.park" color="207,245,201" fill="1" layer="-2.00" shape="2845.391903,2229.858843 2921.685539,2228.752264 2920.969498,2185.162507 2846.008976,2187.340083 2845.391903,2229.858843"/>
    <poly id="216618574" type="building.apartments" color="255,230,230" fill="1" layer="-1.00" shape="2672.179342,2571.818622 2690.475777,2571.342441 2689.613416,2531.066138 2671.124291,2531.455803 2672.179342,2571.818622"/>
    <poly id="216619285" type="building.yes" color="255,230,230" fill="1" layer="-1.00" shape="2841.937625,2447.474403 2838.811073,2447.574875 2839.401226,2464.726138 2845.270860,2464.518288 2845.075018,2458.572274 2844.690923,2447.377991 2841.937625,2447.474403"/>
    <poly id="217690237" type="amenity.school" color="237,199,199" fill="0" layer="-1.00" shape="1957.289248,2206.207268 1933.189052,2266.440042 1879.988415,2393.661900 1834.436892,2395.644987 1789.233846,2397.203497 1787.400233,2326.532281 1786.843239,2305.160413 1783.406255,2188.516446 1834.491683,2191.523584 1955.022425,2199.131934"/>
    <poly id="220189937" type="amenity.parking" color="184,184,179" fill="1" layer="-1.00" shape="2254.906086,2998.733615 2248.683984,2974.045263 2262.699062,2969.583344 2268.954818,2996.431281 2254.906086,2998.733615"/>
    <poly id="220189938" type="leisure.park" color="207,245,201" fill="1" layer="-2.00" shape="2391.012535,2975.481837 2389.752877,2939.562940 2434.713779,2938.175104 2436.015119,2974.226463 2391.012535,2975.481837"/>
    <poly id="220189939" type="amenity.parking" color="184,184,179" fill="1" layer="-1.00" shape="2377.366574,2911.164684 2376.604986,2893.151290 2351.676719,2894.198764 2352.448428,2912.212047 2377.366574,2911.164684"/>
    <poly id="220189940" type="leisure.park" color="207,245,201" fill="1" layer="-2.00" shape="2333.471723,2977.860072 2379.698949,2976.037308 2378.497007,2939.863017 2332.288986,2941.608031 2333.471723,2977.860072"/>
    <poly id="225057814" type="building.commercial" color="255,230,230" fill="1" layer="-1.00" shape="3334.465470,2393.964242 3333.373484,2361.178289 3368.814301,2360.007639 3369.906202,2392.793591 3334.465470,2393.964242"/>
    <poly id="230771780" type="building.apartments" color="255,230,230" fill="1" layer="-1.00" shape="3448.600914,2284.675123 3448.213423,2255.426057 3464.008876,2255.022340 3465.049540,2284.031721 3448.600914,2284.675123"/>
    <poly id="231717729" type="leisure.park" color="207,245,201" fill="1" layer="-2.00" shape="3519.625714,2206.070721 3518.370217,2168.390709 3558.928142,2167.342403 3560.182328,2204.911661 3519.625714,2206.070721"/>
    <poly id="232406871" type="building.apartments" color="255,230,230" fill="1" layer="-1.00" shape="2054.623717,2663.051552 2073.567030,2665.458468 2094.700003,2677.123707 2083.348796,2707.476034 2051.152689,2695.300445 2054.623717,2663.051552"/>
    <poly id="232409612" type="building.apartments" color="255,230,230" fill="1" layer="-1.00" shape="2080.325499,2659.813000 2089.303336,2643.997048 2090.907392,2644.909948 2093.394155,2640.740086 2090.114579,2638.837531 2092.381953,2634.902679 2095.773343,2636.881548 2108.913332,2613.255366 2106.255532,2611.933072 2109.926335,2605.324481 2134.062206,2618.496609 2103.379730,2672.797518 2080.325499,2659.813000"/>
    <poly id="232521083" type="building.yes" color="255,230,230" fill="1" layer="-1.00" shape="2007.572408,2673.568473 2005.587282,2684.855159 2048.193662,2692.264575 2050.178821,2680.977898 2007.572408,2673.568473"/>
    <poly id="232674084" type="building.school" color="255,230,230" fill="1" layer="-1.00" shape="1959.486988,2871.669153 1997.245593,2776.317830 2051.000917,2795.800657 2031.591892,2843.952770 2012.883883,2893.459682 1959.486988,2871.669153"/>
    <poly id="232866643" type="building.house" color="255,230,230" fill="1" layer="-1.00" shape="3013.151326,3517.796250 3011.846053,3515.584038 3013.690538,3514.500631 3014.995810,3516.712843 3013.151326,3517.796250"/>
    <poly id="232866643#1" type="historic.monument" color="128,255,128" fill="1" layer="-1.00" shape="3013.151326,3517.796250 3011.846053,3515.584038 3013.690538,3514.500631 3014.995810,3516.712843 3013.151326,3517.796250"/>
    <poly id="232866643#2" type="tourism.museum" color="207,245,201" fill="1" layer="-2.00" shape="3013.151326,3517.796250 3011.846053,3515.584038 3013.690538,3514.500631 3014.995810,3516.712843 3013.151326,3517.796250"/>
    <poly id="233736021" type="landuse.reservoir" color="194,194,130" fill="1" layer="-3.00" shape="2895.166705,3517.705852 2919.083796,3527.680473 2930.723216,3503.329279 2938.861122,3479.824774 2947.372883,3441.528914 2956.065960,3419.901415 2934.055635,3411.800085 2925.617353,3431.807641 2891.251205,3456.394994 2907.756750,3481.514454 2913.138407,3478.221535 2915.882743,3481.957736 2903.710306,3507.389175 2895.607703,3509.094512 2895.166705,3517.705852"/>
    <poly id="233736022" type="landuse.reservoir" color="194,194,130" fill="1" layer="-3.00" shape="2820.063609,3479.234321 2824.859672,3472.192762 2859.371979,3461.050672 2842.850447,3435.399760 2828.349458,3445.238559 2816.282551,3430.305680 2796.405712,3443.969086 2798.703359,3455.784995 2797.184813,3465.493582 2820.063609,3479.234321"/>
    <poly id="233736023" type="landuse.reservoir" color="194,194,130" fill="1" layer="-3.00" shape="2883.728186,3511.372626 2897.032690,3490.780415 2879.970735,3464.592589 2857.414017,3480.445008 2846.742661,3494.550926 2883.728186,3511.372626"/>
    <poly id="236577317" type="natural.water" color="181,209,209" fill="1" layer="-4.00" shape="3460.553941,3060.117472 3475.152015,3059.161780 3477.891714,3061.546794 3476.639108,3070.709634 3477.018022,3081.471979 3471.719010,3091.487255 3469.137970,3102.813350 3468.156410,3112.781847 3455.845742,3149.789241 3435.152870,3212.983968 3420.637201,3258.754748 3417.234965,3270.632515 3415.406978,3276.035559 3415.034100,3278.864135 3408.379310,3289.436895 3403.855246,3296.475277 3404.998828,3302.388862 3403.485593,3312.628972 3397.741202,3331.798390 3386.408106,3359.369092 3379.505644,3371.284826 3380.113166,3378.001738 3377.758032,3385.027690 3377.092645,3399.024657 3370.976776,3409.048846 3351.777517,3460.120839 3351.406259,3475.189052 3349.354269,3485.977770 3348.145653,3499.183119 3348.795350,3508.857028 3352.189372,3522.278295 3350.613958,3551.892081 3348.269210,3560.800953 3347.822165,3568.880650 3347.183139,3585.303117 3345.658341,3594.468935 3342.554686,3606.886250 3348.287056,3637.783197 3343.423526,3664.663502 3343.843605,3669.909259 3341.156773,3679.829818 3341.305223,3685.144981 3325.370565,3685.583681 3323.813707,3671.333894 3322.304308,3661.458855 3321.757630,3652.913642 3326.618871,3610.016572 3326.695623,3591.983017 3330.552169,3573.642621 3329.420342,3568.814420 3327.720381,3561.832444 3327.079319,3552.955956 3326.983912,3519.051489 3325.858799,3489.732832 3328.653591,3473.021142 3330.405585,3460.618489 3336.168672,3442.257419 3345.944689,3420.895374 3357.251341,3390.899139 3359.508691,3373.927451 3371.533289,3334.774172 3414.696630,3198.407361 3422.752768,3192.394054 3460.553941,3060.117472"/>
    <poly id="241423862" type="amenity.school" color="237,199,199" fill="1" layer="-1.00" shape="1545.932450,3178.717365 1625.679062,3175.538276 1643.760225,3174.819315 1717.395649,3171.873954 1722.372882,3306.534025 1543.793808,3311.993468 1544.866818,3245.233529 1545.932450,3178.717365"/>
    <poly id="243422256" type="building.yes" color="255,230,230" fill="1" layer="-1.00" shape="2524.558336,3390.883402 2541.076197,3391.157409 2541.452332,3368.291110 2524.934443,3368.017101 2524.558336,3390.883402"/>
    <poly id="243422480" type="building.yes" color="255,230,230" fill="1" layer="-1.00" shape="2550.172398,3392.675410 2549.199263,3370.045357 2594.606861,3368.121411 2595.579800,3390.740388 2550.172398,3392.675410"/>
    <poly id="243422649" type="building.yes" color="255,230,230" fill="1" layer="-1.00" shape="2658.946684,3348.246539 2679.501396,3347.723520 2677.663680,3275.346631 2657.108737,3275.858572 2658.946684,3348.246539"/>
    <poly id="243422652" type="building.yes" color="255,230,230" fill="1" layer="-1.00" shape="2602.059252,3387.280305 2601.323094,3366.021174 2637.557643,3364.784428 2638.293744,3386.043558 2602.059252,3387.280305"/>
    <poly id="243424474" type="building.yes" color="255,230,230" fill="1" layer="-1.00" shape="2523.595347,3310.909438 2529.688111,3310.842993 2529.582607,3302.093593 2523.499926,3302.159929 2523.595347,3310.909438"/>
    <poly id="243424476" type="building.yes" color="255,230,230" fill="1" layer="-1.00" shape="2508.535434,3107.617862 2523.671110,3106.932198 2523.297595,3098.584482 2508.161910,3099.270146 2508.535434,3107.617862"/>
    <poly id="243424478" type="building.yes" color="255,230,230" fill="1" layer="-1.00" shape="2476.735026,3212.051961 2588.456798,3208.374653 2587.690139,3185.243906 2475.968177,3188.921211 2476.735026,3212.051961"/>
    <poly id="243424478#1" type="military.office" color="153,153,92" fill="1" layer="-2.00" shape="2476.735026,3212.051961 2588.456798,3208.374653 2587.690139,3185.243906 2475.968177,3188.921211 2476.735026,3212.051961"/>
    <poly id="243424479" type="building.yes" color="255,230,230" fill="1" layer="-1.00" shape="2568.099978,3110.468599 2586.221431,3109.739378 2585.823379,3100.062733 2567.701794,3100.780879 2568.099978,3110.468599"/>
    <poly id="243424481" type="building.yes" color="255,230,230" fill="1" layer="-1.00" shape="2551.982618,3463.391135 2570.612431,3463.066157 2569.974086,3425.800204 2551.344102,3426.114105 2551.982618,3463.391135"/>
    <poly id="243424482" type="building.yes" color="255,230,230" fill="1" layer="-1.00" shape="2621.977069,3229.276452 2622.736949,3248.087382 2677.393287,3245.896796 2676.633483,3227.085866 2621.977069,3229.276452"/>
    <poly id="243424485" type="building.yes" color="255,230,230" fill="1" layer="-1.00" shape="2428.811161,3551.985606 2431.076846,3560.844355 2450.153855,3557.135945 2447.978968,3548.276202 2428.811161,3551.985606"/>