<?xml version="1.0" encoding="UTF-8"?>
<!-- generated on 2020-11-10 21:56:33.320137 by osmWebWizard.py v1_7_0+0000-714814baed
  options: 
-->
<routes xmlns:xsi="http://www.w3.org/2001/XMLSchema-instance" xsi:noNamespaceSchemaLocation="http://sumo.dlr.de/xsd/routes_file.xsd">
    <vType id="pt_bus" vClass="bus"/>
    <vType id="pt_tram" vClass="tram"/>
    <vType id="pt_train" vClass="rail"/>
    <vType id="pt_subway" vClass="rail_urban"/>
    <vType id="pt_light_rail" vClass="rail_urban"/>
    <vType id="pt_monorail" vClass="rail"/>
    <vType id="pt_trolleybus" vClass="bus"/>
    <vType id="pt_aerialway" vClass="bus"/>
    <vType id="pt_ferry" vClass="ship"/>
    <route id="pt_bus_292副:0" edges="312109408#0 312109408#5 312109408#6 312109408#7 312109408#8 312109408#9 24006861 264689871 265725163#0 265725163#1" >
        <stop busStop="3794154665" duration="30.00" until="95.0"/> <!-- 成淵高中 -->
    </route>
    <route id="pt_bus_636:0" edges="368617667#0 368617667#3 437870658#1 437870658#4 437870658#5 437870658#6 273012211#1 273012211#2 273012211#3 273012211#4 273012211#5 273012211#6 265725163#0 265725163#1" >
        <stop busStop="2517658931" duration="30.00" until="83.0"/> <!-- 民族承德路口 -->
        <stop busStop="2517658824" duration="30.00" until="159.0"/> <!-- 大同國小 -->
    </route>
    <route id="pt_bus_內科圓山:0" edges="241536929#0 241536929#1 266052139 50289964 49795832#1 49795832#2 49795876#0 49795876#1 241536967#0 241536967#1 241536967#2 -241536989#1 -241536989#0 241536984" >
        <stop busStop="4400929026" duration="30.00" until="246.0"/> <!-- 捷運圓山站(玉門街) -->
    </route>
    <route id="pt_bus_636:1" edges="299291335#0 299291335#2 299291335#3 226831247 265725164#0 265725164#1 265725164#2 299403731#0 506596676#1 506596676#2 506596676#3 278492469#0 278492469#1 278492469#2 278492469#3 278492469#4" >
        <stop busStop="2713414521" duration="30.00" until="53.0"/> <!-- 捷運民權西路站 -->
        <stop busStop="2702176992" duration="30.00" until="156.0"/> <!-- 台泥大樓(馬偕醫院) -->
    </route>
    <route id="pt_bus_2001:0" edges="368617667#0 368617667#3 437870658#1 437870658#4 437870658#5 437870658#6 273012211#1 273012211#2 273012211#3 273012211#4 273012211#5 273012211#6 265725161 732390620#0 732390620#1 732390620#2" >
        <stop busStop="2517658859" duration="30.00" until="184.0"/> <!-- 成淵高中 -->
    </route>
    <route id="pt_bus_內科圓山:1" edges="241536984 241536946 241536989#0 241536989#1 -303410231#0 303410231#0 241536973#1 241536973#2 515156237 515156238 515156240 515156243#0 515156243#1 49795872#1 49795872#2 50289965#0 50289965#1 266052141" >
        <stop busStop="4400929026" duration="30.00" until="44.0"/> <!-- 捷運圓山站(玉門街) -->
    </route>
    <route id="pt_bus_520:1" edges="299291335#0 299291335#2 299291335#3 226831247 265725164#0 265725164#1 265725164#2 299403731#0 506596676#1 506596676#2 506596676#3 450750323 306543362 49788435 506596684#0 506596684#1 506596684#2 506596684#3 506596684#4 506596684#5" >
        <stop busStop="2713414521" duration="30.00" until="91.0"/> <!-- 捷運民權西路站 -->
        <stop busStop="2703510764" duration="30.00" until="214.0"/> <!-- 民權中山路口 -->
    </route>
    <route id="pt_bus_638:0" edges="308987019#0 308987019#2 308987019#5 308987019#7 308987019#8 308987019#9 308987019#10 308987019#11 506597801#1 506597801#3 506597801#4 506597801#5 265735748 50893546 278492471 278492470#0 278492470#1 278492470#2 506596678#1 506596678#2 299403732#0 299403732#1 264689871 265725163#0 265725163#1" >
        <stop busStop="2509549136" duration="30.00" until="79.0"/> <!-- 新興國中 -->
    </route>
    <route id="pt_subway_BR:0" edges="195696237" >
        <stop busStop="3497302607" duration="30.00" until="31.0"/> <!-- 中山國中 -->
    </route>
    <route id="pt_bus_2:0" edges="368617667#0 368617667#3 299804824#1 299804824#2 299804824#3 299804824#4 299804824#5 299804822#1 299804822#2 299804822#3 -264309964#1 -264309964#0" >
        <stop busStop="3881368454" duration="30.00" until="88.0"/> <!-- 民族承德路口 -->
        <stop busStop="-3188479009" duration="30.00" until="175.0"/> <!-- 庫倫街 -->
    </route>
    <route id="pt_bus_606:0" edges="50893489 318382834 254326534 -49074697 793191066#0 254326526#0 254326526#1 254326526#2 254326526#3 254326526#4 254326526#5 254326526#6" >
        <stop busStop="2460552126" duration="30.00" until="135.0"/> <!-- 民族東路口 -->
        <stop busStop="2460552127" duration="30.00" until="212.0"/> <!-- 稻江護校 -->
    </route>
    <route id="pt_bus_520:0" edges="308987019#0 308987019#2 308987019#5 308987019#7 308987019#8 308987019#9 308987019#10 308987019#11 506597801#1 506597801#3 506597801#4 506597801#5 265735748 50893546 278492471 278492470#0 278492470#1 278492470#2 506596678#1 506596678#2 299403732#0 299403732#1 264689871 265725163#0 265725163#1" >
        <stop busStop="2509549136" duration="30.00" until="75.0"/> <!-- 新興國中 -->
        <stop busStop="2703510765" duration="30.00" until="173.0"/> <!-- 民權中山路口 -->
        <stop busStop="4838086676" duration="30.00" until="310.0"/> <!-- 捷運民權西路站 -->
    </route>
    <route id="pt_bus_676:1" edges="263056100#1 263056100#2 263056100#3" >
        <stop busStop="2506289799" duration="30.00" until="55.0"/> <!-- 捷運行天宮站 -->
    </route>
    <route id="pt_bus_21:0" edges="241536929#0 241536929#1 266052139 50289964 49795832#1 49795832#2 49795876#0 49795876#1 241536967#0 241536967#1 241536967#2 -241536989#1 -241536989#0 241536984" >
        <stop busStop="2509549129" duration="30.00" until="83.0"/> <!-- 台北市立美術館 -->
        <stop busStop="2509668574" duration="30.00" until="243.0"/> <!-- 花博公園 -->
        <stop busStop="4400929026" duration="30.00" until="326.0"/> <!-- 捷運圓山站(玉門街) -->
    </route>
    <route id="pt_bus_966:0" edges="264309964#0 264309964#1 299804823#0 299804823#1 299804823#2 291356417#2 291356417#3 291356417#4 291356417#5 291356417#6 437870658#1 437870658#4 437870658#5 437870658#6 273012211#1 273012211#2 273012211#3 273012211#4 273012211#5 273012211#6 265725161 732390620#0 732390620#1 732390620#2" >
        <stop busStop="2517658841" duration="30.00" until="69.0"/> <!-- 庫倫街口 -->
        <stop busStop="2517658824" duration="30.00" until="179.0"/> <!-- 大同國小 -->
        <stop busStop="2517658859" duration="30.00" until="287.0"/> <!-- 成淵高中 -->
    </route>
    <route id="pt_subway_BR:1" edges="195696213 502829430 195696242#1 195696242#2 195696242#3 502829428 50212695#3 195696237" >
        <stop busStop="3497302607" duration="30.00" until="106.0"/> <!-- 中山國中 -->
    </route>
    <route id="pt_bus_5201:0" edges="49164288 49074706 49074696 302246990#0 302246990#1 407513567#1 260789415#0 260789415#3 260789415#4 260789415#5 260789415#6 260789415#7 260789415#8 260789415#9 263056100#1 263056100#2 263056100#3" >
        <stop busStop="3064960375" duration="30.00" until="217.0"/> <!-- 松江新村 -->
    </route>
    <route id="pt_bus_9025:0" edges="49164288 49074706 49074696 302246990#0 302246990#1 407513567#1 260789415#0 260789415#3 260789415#4 260789415#5 260789415#6 260789415#7 260789415#8 260789415#9 263056100#1 263056100#2 263056100#3" >
        <stop busStop="2506289848" duration="30.00" until="194.0"/> <!-- 行天宮 -->
    </route>
    <route id="pt_bus_5:1" edges="401376480#0 401376480#2 401376480#3 401376480#4" >
        <stop busStop="1166189365" duration="30.00" until="68.0"/> <!-- 捷運中山國中站 -->
    </route>
    <route id="pt_bus_221:0" edges="299291335#0 299291335#2 299291335#3 226831247 265725164#0 265725164#1 265725164#2 299403731#0 506596676#1 506596676#2 506596676#3 278492469#0 278492469#1 278492469#2 278492469#3 278492469#4" >
        <stop busStop="2713414521" duration="30.00" until="162.0"/> <!-- 捷運民權西路站 -->
        <stop busStop="2702176992" duration="30.00" until="377.0"/> <!-- 台泥大樓(馬偕醫院) -->
    </route>
    <route id="pt_bus_260:1" edges="241536929#0 241536929#1 266052139 50289964 49795832#1 49795832#2 49795876#0 49795876#1 241536920 515156236#0 515156236#1 515156236#2 515156250#0 515156250#1 515156250#2 515156250#3 515156259#0 515156259#1 319208672#0 319208672#1 450750325 278492469#0 278492469#1 278492469#2 278492469#3 278492469#4" >
        <stop busStop="2509549129" duration="30.00" until="104.0"/> <!-- 台北市立美術館 -->
    </route>
    <route id="pt_bus_21:1" edges="241536984 241536946 241536989#0 241536989#1 -303410231#0 303410231#0 241536973#1 241536973#2 515156237 515156238 515156240 515156243#0 515156243#1 49795872#1 49795872#2 50289965#0 50289965#1 266052141" >
        <stop busStop="4400929026" duration="30.00" until="44.0"/> <!-- 捷運圓山站(玉門街) -->
        <stop busStop="2509549130" duration="30.00" until="329.0"/> <!-- 台北市立美術館 -->
    </route>
    <route id="pt_bus_292副:1" edges="299291335#0 299291335#2 299291335#3 732390620#0 732390620#1 732390620#2" >
        <stop busStop="2517658859" duration="30.00" until="360.0"/> <!-- 成淵高中 -->
    </route>
    <route id="pt_bus_9023:1" edges="50893520#6 50893520#8 50893520#9 299804823#0 299804823#1 299804823#2" >
        <stop busStop="2517658893" duration="30.00" until="48.0"/> <!-- 明倫高中 -->
        <stop busStop="2517658841" duration="30.00" until="129.0"/> <!-- 庫倫街口 -->
    </route>
    <route id="pt_bus_9025:1" edges="49164288 49074706 49074696 302246990#0 302246990#1 407513567#1 260789415#0 260789415#3 260789415#4 260789415#5 260789415#6 260789415#7 260789415#8 260789415#9 263056100#1 263056100#2 263056100#3" >
        <stop busStop="2506289848" duration="30.00" until="225.0"/> <!-- 行天宮 -->
    </route>
    <route id="pt_bus_298:1" edges="668037871#0 668037871#2 668037871#3 668037871#4 238707587#1 238707587#2 238707587#3 238707587#4 238707587#5 238707587#6 310620430#1 310620430#2 310620430#3 310620430#4" >
        <stop busStop="3419306362" duration="30.00" until="56.0"/> <!-- 第二果菜市場 -->
        <stop busStop="3419306361" duration="30.00" until="143.0"/> <!-- 榮星花園 -->
    </route>
    <route id="pt_bus_306:0" edges="368617667#0 368617667#3 437870658#1 437870658#4 437870658#5 437870658#6 273012211#1 273012211#2 273012211#3 273012211#4 273012211#5 273012211#6 265725163#0 265725163#1" >
        <stop busStop="2517658931" duration="30.00" until="91.0"/> <!-- 民族承德路口 -->
        <stop busStop="2517658824" duration="30.00" until="208.0"/> <!-- 大同國小 -->
        <stop busStop="2517658856" duration="30.00" until="258.0"/> <!-- 成淵高中 -->
    </route>
    <route id="pt_bus_292:0" edges="299291335#0 299291335#2 299291335#3 732390620#0 732390620#1 732390620#2" >
        <stop busStop="2517658859" duration="30.00" until="390.0"/> <!-- 成淵高中 -->
    </route>
    <route id="pt_bus_306:1" edges="368617667#0 368617667#3 437870658#1 437870658#4 437870658#5 437870658#6 273012211#1 273012211#2 273012211#3 273012211#4 273012211#5 273012211#6 265725163#0 265725163#1" >
        <stop busStop="2517658931" duration="30.00" until="123.0"/> <!-- 民族承德路口 -->
        <stop busStop="2517658824" duration="30.00" until="239.0"/> <!-- 大同國小 -->
        <stop busStop="2517658856" duration="30.00" until="291.0"/> <!-- 成淵高中 -->
    </route>
    <route id="pt_bus_226:0" edges="732390620#1" >
        <stop busStop="2517658859" duration="30.00" until="43.0"/> <!-- 成淵高中 -->
    </route>
    <route id="pt_bus_NH18:1" edges="226831247 265725164#0 265725164#1 265725164#2 299403731#0 506596676#1 506596676#2 506596676#3 450750323 306543362 49788435 506596684#0 506596684#1 506596684#2 506596684#3 506596684#4 506596684#5 506596684#6 506597799#0 506597799#1 506597799#2 265735591 263056109 506597804#0 506597804#1 506597804#2 506597805#0 506597805#1 506597805#2 241545656#0 241545656#1 241545656#2 241545656#3 241545656#4 241545656#5 263056104#0 263056104#1 263056104#2 506597809#0 506597809#1 506597809#2 506597811 506597812#0 506597812#1 506597812#2 506597812#3 506599419#0 506599419#1 506599419#2 506599419#4 772891699#0 772891699#1 506316028#0 506316028#1 506316028#2 506599423#0 506599423#1 506599423#2 506599423#3 506599423#4 506599423#5 264410144" >
        <stop busStop="2517658859@10124604" duration="30.00" until="31.0"/> <!-- 成淵高中 -->
    </route>
    <route id="pt_bus_紅57:0" edges="260789406#0 260789406#1 260789406#2 260789406#3 260789406#4 260789406#5 260789406#8 260789406#9 260789406#11 260789406#12 260789406#13 260789406#15 260789406#16 260789406#17 260789406#18 260789406#19 260789406#20 241545656#0 241545656#1 241545656#2 241545656#3 241545656#4 241545656#5 263056100#1 263056100#2 263056100#3" >
        <stop busStop="2657578306" duration="30.00" until="50.0"/> <!-- 吉林路底 -->
        <stop busStop="2657578312" duration="30.00" until="113.0"/> <!-- 新福里 -->
        <stop busStop="2657578309" duration="30.00" until="163.0"/> <!-- 新壽公園 -->
        <stop busStop="2506289799" duration="30.00" until="278.0"/> <!-- 捷運行天宮站 -->
    </route>
    <route id="pt_bus_967直:1" edges="49164288 49074706 49074696 302246990#0 302246990#1 407513567#1 260789415#0 260789415#3 260789415#4 260789415#5 260789415#6 260789415#7 260789415#8 260789415#9 263056104#0 263056104#1 263056104#2 506597809#0 506597809#1 506597809#2 506597811 506597812#0 506597812#1 506597812#2 506597812#3 506599419#0 506599419#1 506599419#2 506599419#4 772891699#0 772891699#1 506316028#0 506316028#1 506316028#2 506599423#0 506599423#1 506599423#2 506599423#3 506599423#4 506599423#5 264410144 241545650#1 241545650#2" >
        <stop busStop="4961039545" duration="30.00" until="166.0"/> <!-- 行天宮 -->
        <stop busStop="2506289802" duration="30.00" until="275.0"/> <!-- 民權建國路口 -->
        <stop busStop="2506289804" duration="30.00" until="340.0"/> <!-- 民權龍江路口 -->
        <stop busStop="2657578314" duration="30.00" until="403.0"/> <!-- 民權復興路口 -->
        <stop busStop="2657578316" duration="30.00" until="487.0"/> <!-- 民權敦化路口 -->
    </route>
    <route id="pt_bus_643:1" edges="198589897#3 198589897#4 198589897#5 772891698 264859962#0 264859962#1 264859962#2 264859962#3 264859962#4" >
        <stop busStop="2506289797" duration="30.00" until="45.0"/> <!-- 五常街口 -->
        <stop busStop="2506754602" duration="30.00" until="124.0"/> <!-- 捷運中山國中站 -->
    </route>
    <route id="pt_bus_246:0" edges="-308286090#11" >
        <stop busStop="-2509549126" duration="30.00" until="41.0"/> <!-- 中山國小 -->
    </route>
    <route id="pt_bus_292:1" edges="312109408#0 312109408#5 312109408#6 312109408#7 312109408#8 312109408#9 24006861 264689871 265725163#0 265725163#1" >
        <stop busStop="3794154665" duration="30.00" until="80.0"/> <!-- 成淵高中 -->
    </route>
    <route id="pt_bus_9023:0" edges="306977115#0 306977115#1 306977115#2 50893520#2 50893520#3 50893520#6 50893520#8 50893520#9 300090400#1 300090400#2 300090400#4 300090400#7 300090400#8 382754769" >
        <stop busStop="2517658844" duration="30.00" until="174.0"/> <!-- 庫倫街口 -->
    </route>
    <route id="pt_bus_616:0" edges="50893520#0 50893520#2 50893520#3 50893520#6 50893520#8 50893520#9 299804823#0 299804823#1 299804823#2 291356417#2 291356417#3 291356417#4 291356417#5 291356417#6 437870658#1 437870658#4 437870658#5 437870658#6 273012211#1 273012211#2 273012211#3 273012211#4 273012211#5 273012211#6 265725163#0 265725163#1" >
        <stop busStop="2517658893" duration="30.00" until="113.0"/> <!-- 明倫高中 -->
        <stop busStop="2517658841" duration="30.00" until="172.0"/> <!-- 庫倫街口 -->
        <stop busStop="2517658931" duration="30.00" until="263.0"/> <!-- 民族承德路口 -->
        <stop busStop="2517658824" duration="30.00" until="381.0"/> <!-- 大同國小 -->
    </route>
    <route id="pt_subway_R:0" edges="265151055 865641460 194618356 194618291 194618339" >
        <stop busStop="3495094874" duration="30.00" until="369.0"/> <!-- 圓山 -->
        <stop busStop="3495094873" duration="30.00" until="481.0"/> <!-- 民權西路 -->
    </route>
    <route id="pt_bus_9:0" edges="368617667#0 368617667#3 299804824#1 299804824#2 299804824#3 299804824#4 299804824#5 299804822#1 299804822#2 299804822#3 -264309964#1 -264309964#0" >
        <stop busStop="3881368454" duration="30.00" until="77.0"/> <!-- 民族承德路口 -->
        <stop busStop="-3188479009" duration="30.00" until="171.0"/> <!-- 庫倫街 -->
    </route>
    <route id="pt_bus_1501:0" edges="-780467355#3 -780467355#0 273012211#1 273012211#2 273012211#3 273012211#4 273012211#5 273012211#6 265725163#0 265725163#1" >
        <stop busStop="2517658824" duration="30.00" until="120.0"/> <!-- 大同國小 -->
    </route>
    <route id="pt_bus_中山幹線:1" edges="515156277#0 515156266#0 515156266#1 515156266#2 515156266#3 515156266#4 506596685 265735749#0 265735749#1 265735749#2 319208670#0 319208670#1 515156255#0 515156255#1 515156255#2 515156251#0 515156251#1 515156251#2 515156251#3 515156251#4 241811753 265735269#0 265735269#1 265735269#2 49795872#1 49795872#2 50289965#0 50289965#1 266052141" >
        <stop busStop="2702176993" duration="30.00" until="71.0"/> <!-- 台泥大樓(馬偕醫院) -->
        <stop busStop="2702175895" duration="30.00" until="202.0"/> <!-- 大同公司 (晴光市場) -->
        <stop busStop="2702173288" duration="30.00" until="399.0"/> <!-- 大同大學 -->
        <stop busStop="2509549130" duration="30.00" until="470.0"/> <!-- 台北市立美術館 -->
    </route>
    <route id="pt_bus_298:0" edges="316964704#0 -593840519#7 -593840519#6 -593840519#5 -593840519#4 -593840519#3 -593840519#2 -593840519#1 593840518#1 593840518#2 593840518#3 238707595#1 238707595#2 238707595#3 238707595#4 238707595#5 238707595#6 238707595#9 312879610#0 312879610#1" >
        <stop busStop="1483501762" duration="30.00" until="241.0"/> <!-- 行天宮 -->
        <stop busStop="2506289800" duration="30.00" until="340.0"/> <!-- 新生公園（林安泰） -->
    </route>
    <route id="pt_bus_紅57:1" edges="265736010#0 593840518#1 593840518#2 593840518#3 198589909#0 198589909#1 198589909#2 198589909#3 198589909#4 198589909#5 -260789406#20 -260789406#19 -260789406#18 -260789406#17 -260789406#16 -260789406#15 -260789406#13 -260789406#12 -260789406#11 -260789406#9 -260789406#8 -260789406#5 -260789406#4 -260789406#3 -260789406#2 -260789406#1 -260789406#0" >
        <stop busStop="2685395657" duration="30.00" until="75.0"/> <!-- 民權松江路口 -->
        <stop busStop="-2657578308" duration="30.00" until="190.0"/> <!-- 新壽公園 -->
        <stop busStop="-2657578311" duration="30.00" until="239.0"/> <!-- 新福里 -->
        <stop busStop="-2657578307" duration="30.00" until="365.0"/> <!-- 吉林路底 -->
    </route>
    <route id="pt_bus_260:0" edges="515156277#0 515156266#0 515156266#1 515156266#2 515156266#3 515156266#4 506596685 265735749#0 265735749#1 265735749#2 319208670#0 319208670#1 515156255#0 515156255#1 515156255#2 515156251#0 515156251#1 515156251#2 515156251#3 515156251#4 241811753 265735269#0 265735269#1 265735269#2 49795872#1 49795872#2 50289965#0 50289965#1 266052141" >
        <stop busStop="2702173288" duration="30.00" until="402.0"/> <!-- 大同大學 -->
        <stop busStop="2509549130" duration="30.00" until="549.0"/> <!-- 台北市立美術館 -->
    </route>
    <route id="pt_bus_復興幹線:0" edges="-793234595 -404387335 238707590#0 238707590#1 238707596#0 238707596#1 238707596#2 238707596#4 238707596#5 238707596#6 238707596#7 238707596#10 238707596#11 238707596#14 238707596#15 238707596#16 238707596#17 238707596#18 198589897#0 198589897#1 198589897#2 198589897#3 198589897#4 198589897#5 772891698 264859962#0 264859962#1 264859962#2 264859962#3 264859962#4" >
        <stop busStop="-4066659498" duration="30.00" until="31.0"/> <!-- 建北站 -->
        <stop busStop="2506289838" duration="30.00" until="203.0"/> <!-- 臺北漁市 -->
        <stop busStop="2506289805" duration="30.00" until="276.0"/> <!-- 第二果菜市場 -->
        <stop busStop="2506289795" duration="30.00" until="337.0"/> <!-- 下埤里 -->
        <stop busStop="2506289798" duration="30.00" until="412.0"/> <!-- 復興北村 -->
        <stop busStop="2506289797" duration="30.00" until="477.0"/> <!-- 五常街口 -->
        <stop busStop="2506754602" duration="30.00" until="544.0"/> <!-- 捷運中山國中站 -->
    </route>
    <route id="pt_bus_967:1" edges="49164288 49074706 49074696 302246990#0 302246990#1 407513567#1 260789415#0 260789415#3 260789415#4 260789415#5 260789415#6 260789415#7 260789415#8 260789415#9 263056104#0 263056104#1 263056104#2 506597809#0 506597809#1 506597809#2 506597811 506597812#0 506597812#1 506597812#2 506597812#3 506599419#0 506599419#1 506599419#2 506599419#4 772891699#0 772891699#1 506316028#0 506316028#1 506316028#2 506599423#0 506599423#1 506599423#2 506599423#3 506599423#4 506599423#5 264410144 241545650#1 241545650#2" >
        <stop busStop="4961039545" duration="30.00" until="259.0"/> <!-- 行天宮 -->
        <stop busStop="2506289802" duration="30.00" until="352.0"/> <!-- 民權建國路口 -->
        <stop busStop="2506289804" duration="30.00" until="431.0"/> <!-- 民權龍江路口 -->
        <stop busStop="2657578314" duration="30.00" until="514.0"/> <!-- 民權復興路口 -->
        <stop busStop="2657578316" duration="30.00" until="611.0"/> <!-- 民權敦化路口 -->
    </route>
    <route id="pt_subway_O:0" edges="198281393 194618356" >
        <stop busStop="3812564391" duration="30.00" until="78.0"/> <!-- 中山國小 -->
        <stop busStop="3495094873" duration="30.00" until="449.0"/> <!-- 民權西路 -->
    </route>
    <route id="pt_bus_109:0" edges="50893489 318382834 254326534 -49074697 793191066#0 254326526#0 254326526#1 254326526#2 254326526#3 254326526#4 254326526#5 254326526#6 254326526#7 254326526#8 313235566#0 313235566#1 313235566#2 313235566#3 313235566#4 506597799#0 506597799#1 506597799#2 265735591 263056109 506597804#0 506597804#1 506597804#2 506597805#0 506597805#1 506597805#2 241545656#0 241545656#1 241545656#2 241545656#3 241545656#4 241545656#5 263056100#1 263056100#2 263056100#3" >
        <stop busStop="2460552126" duration="30.00" until="152.0"/> <!-- 民族東路口 -->
        <stop busStop="2460552127" duration="30.00" until="230.0"/> <!-- 稻江護校 -->
        <stop busStop="2460552082" duration="30.00" until="281.0"/> <!-- 中山國小 -->
        <stop busStop="2686831915" duration="30.00" until="507.0"/> <!-- 民權吉林路口 -->
        <stop busStop="2506289799" duration="30.00" until="595.0"/> <!-- 捷運行天宮站 -->
    </route>
    <route id="pt_bus_5:0" edges="198589912#0 198589912#1 198589912#2 198589912#3 198589912#5 198589912#6 198589912#7 506599421#0 506599421#1 506599421#2 506599421#3 317347668 334816784#0 334816784#1 334816784#2 334816784#3 334816784#4 334816784#5 506597810#0 506597810#1 506597810#2 506597810#3 263056100#1 263056100#2 263056100#3" >
        <stop busStop="2506289804@5311165" duration="30.00" until="161.0"/> <!-- 民權龍江路口 -->
        <stop busStop="1483501761" duration="30.00" until="233.0"/> <!-- 民權建國路口 -->
        <stop busStop="2506289803" duration="30.00" until="351.0"/> <!-- 民權松江路口 -->
    </route>
    <route id="pt_bus_中山幹線:0" edges="241536929#0 241536929#1 266052139 50289964 49795832#1 49795832#2 49795876#0 49795876#1 241536920 515156236#0 515156236#1 515156236#2 515156250#0 515156250#1 515156250#2 515156250#3 515156259#0 515156259#1 319208672#0 319208672#1 450750325 278492469#0 278492469#1 278492469#2 278492469#3 278492469#4" >
        <stop busStop="2509549129" duration="30.00" until="136.0"/> <!-- 台北市立美術館 -->
        <stop busStop="2702173283" duration="30.00" until="292.0"/> <!-- 大同大學 -->
        <stop busStop="2702175363" duration="30.00" until="452.0"/> <!-- 大同公司 (晴光市場) -->
        <stop busStop="2702176992" duration="30.00" until="517.0"/> <!-- 台泥大樓(馬偕醫院) -->
    </route>
    <route id="pt_bus_214:1" edges="506597809#1 506597809#2 506597811 506597812#0 506597812#1 506597812#2 506597812#3 506599419#0 506599419#1 506599419#2 506599419#4 772891699#0 772891699#1 506316028#0 506316028#1 506316028#2 506599423#0 506599423#1" >
        <stop busStop="2506289802" duration="30.00" until="53.0"/> <!-- 民權建國路口 -->
        <stop busStop="2506289804" duration="30.00" until="154.0"/> <!-- 民權龍江路口 -->
        <stop busStop="2657578314" duration="30.00" until="240.0"/> <!-- 民權復興路口 -->
        <stop busStop="2657578316" duration="30.00" until="309.0"/> <!-- 民權敦化路口 -->
    </route>
    <route id="pt_bus_承德幹線:0" edges="50893520#0 50893520#2 50893520#3 50893520#6 50893520#8 50893520#9 299804823#0 299804823#1 299804823#2 291356417#2 291356417#3 291356417#4 291356417#5 291356417#6 437870658#1 437870658#4 437870658#5 437870658#6 273012211#1 273012211#2 273012211#3 273012211#4 273012211#5 273012211#6 265725161 732390620#0 732390620#1 732390620#2" >
        <stop busStop="2517658893" duration="30.00" until="79.0"/> <!-- 明倫高中 -->
        <stop busStop="2517658841" duration="30.00" until="151.0"/> <!-- 庫倫街口 -->
        <stop busStop="2517658931" duration="30.00" until="209.0"/> <!-- 民族承德路口 -->
        <stop busStop="2517658824" duration="30.00" until="304.0"/> <!-- 大同國小 -->
        <stop busStop="2517658856" duration="30.00" until="356.0"/> <!-- 成淵高中 -->
        <stop busStop="2517658859" duration="30.00" until="407.0"/> <!-- 成淵高中 -->
    </route>
    <route id="pt_bus_33:0" edges="260789418#0 260789418#2 260789418#3 260789418#4 260789418#5 260789418#6 260789418#7 506599425#0 506599425#1 506599424#1 506599424#2 506599424#3 506599424#4 506599424#5 238707591#1 238707591#2 304591777#0 304591777#1 304591777#2 304591777#3 304591777#4 95015336 95015334 29174276#0 29174276#1 338923674 779271000 765770904#0 765770904#1 45265806" >
        <stop busStop="2657578315" duration="30.00" until="106.0"/> <!-- 民權敦化路口 -->
        <stop busStop="2657578313" duration="30.00" until="198.0"/> <!-- 民權復興路口 -->
    </route>
    <route id="pt_bus_685吉林:0" edges="50893489 318382834 254326534 -49074697 793191066#0 50202893#0 50202893#1 50202893#2 50202893#3 260789406#0 260789406#1 260789406#2 260789406#3 260789406#4 260789406#5 260789406#8 260789406#9 260789406#11 260789406#12 260789406#13 260789406#15 260789406#16 260789406#17 260789406#18 260789406#19 260789406#20 241545656#0 241545656#1 241545656#2 241545656#3 241545656#4 241545656#5 263056104#0 263056104#1 263056104#2 506597809#0 506597809#1 506597809#2 506597811 506597812#0 506597812#1 506597812#2 506597812#3 506599419#0 506599419#1 506599419#2 506599419#4 772891699#0 772891699#1 772891698 264859962#0 264859962#1 264859962#2 264859962#3 264859962#4" >
        <stop busStop="4082319379" duration="30.00" until="146.0"/> <!-- 新生公園 -->
        <stop busStop="2657578306" duration="30.00" until="210.0"/> <!-- 吉林路底 -->
        <stop busStop="2657578312" duration="30.00" until="280.0"/> <!-- 新福里 -->
        <stop busStop="2657578309" duration="30.00" until="330.0"/> <!-- 新壽公園 -->
        <stop busStop="2183271156" duration="30.00" until="408.0"/> <!-- 民權松江路口 -->
        <stop busStop="2506289802" duration="30.00" until="500.0"/> <!-- 民權建國路口 -->
        <stop busStop="2506289804" duration="30.00" until="596.0"/> <!-- 民權龍江路口 -->
        <stop busStop="2506754602" duration="30.00" until="688.0"/> <!-- 捷運中山國中站 -->
    </route>
    <route id="pt_bus_756:1" edges="50893520#6 50893520#8 50893520#9 299804823#0 299804823#1 299804823#2 291356417#2 291356417#3 291356417#4 291356417#5 291356417#6 437870658#1 437870658#4 437870658#5 437870658#6 273012211#1 273012211#2 273012211#3 273012211#4 273012211#5 273012211#6 265725161 732390620#0 732390620#1" >
        <stop busStop="2517658893" duration="30.00" until="50.0"/> <!-- 明倫高中 -->
        <stop busStop="2517658841" duration="30.00" until="162.0"/> <!-- 庫倫街口 -->
        <stop busStop="2517658931" duration="30.00" until="238.0"/> <!-- 民族承德路口 -->
        <stop busStop="2517658824" duration="30.00" until="349.0"/> <!-- 大同國小 -->
        <stop busStop="2517658859" duration="30.00" until="408.0"/> <!-- 成淵高中 -->
    </route>
    <route id="pt_bus_638:1" edges="299291335#0 299291335#2 299291335#3 226831247 265725164#0 265725164#1 265725164#2 299403731#0 506596676#1 506596676#2 506596676#3 450750323 306543362 49788435 506596684#0 506596684#1 506596684#2 506596684#3 506596684#4 506596684#5 506596684#6 -308987019#11 -308987019#10 -308987019#9 -308987019#8 -308987019#7 -308987019#5 -308987019#2 -308987019#1" >
        <stop busStop="2713414521" duration="30.00" until="306.0"/> <!-- 捷運民權西路站 -->
        <stop busStop="2703510764" duration="30.00" until="482.0"/> <!-- 民權中山路口 -->
        <stop busStop="-2491474584" duration="30.00" until="676.0"/> <!-- 新興國中 -->
    </route>
    <route id="pt_bus_觀光巴士藍線:0" edges="241536929#0 241536929#1 266052139 50289964 49795832#1 49795832#2 49795876#0 49795876#1 241536920 515156236#0 515156236#1 515156236#2 515156250#0 515156250#1 515156250#2 515156250#3 515156259#0 515156259#1 319208672#0 319208672#1 450750325 278492469#0 278492469#1 278492469#2 278492469#3 278492469#4" >
        <stop busStop="2509549129" duration="30.00" until="80.0"/> <!-- 台北市立美術館 -->
        <stop busStop="2702175363" duration="30.00" until="205.0"/> <!-- 大同公司 (晴光市場) -->
    </route>
    <route id="pt_bus_1717:1" edges="241536929#0 241536929#1 266052139 50289964 49795832#1 49795832#2 49795876#0 49795876#1 241536920 515156236#0 515156236#1 515156236#2 515156250#0 515156250#1 515156250#2 515156250#3 515156259#0 515156259#1 319208672#0 319208672#1 450750325 278492469#0 278492469#1 278492469#2 278492469#3 278492469#4" >
        <stop busStop="2509549129" duration="30.00" until="82.0"/> <!-- 台北市立美術館 -->
        <stop busStop="2702173283" duration="30.00" until="214.0"/> <!-- 大同大學 -->
        <stop busStop="2702175363" duration="30.00" until="342.0"/> <!-- 大同公司 (晴光市場) -->
        <stop busStop="2702176992" duration="30.00" until="486.0"/> <!-- 台泥大樓(馬偕醫院) -->
    </route>
    <route id="pt_bus_612:1" edges="50893489 318382834 254326534 -49074697 793191066#0 254326526#0 254326526#1 254326526#2 254326526#3 254326526#4 254326526#5 254326526#6 254326526#7 254326526#8 313235566#0 313235566#1 313235566#2 313235566#3 313235566#4 506597799#0 506597799#1 506597799#2 265735591 263056109 506597804#0 506597804#1 506597804#2 506597805#0 506597805#1 506597805#2 241545656#0 241545656#1 241545656#2 241545656#3 241545656#4 241545656#5 263056100#1 263056100#2 263056100#3" >
        <stop busStop="2460552126" duration="30.00" until="210.0"/> <!-- 民族東路口 -->
        <stop busStop="2460552127" duration="30.00" until="296.0"/> <!-- 稻江護校 -->
        <stop busStop="2460552082" duration="30.00" until="350.0"/> <!-- 中山國小 -->
        <stop busStop="2686831915" duration="30.00" until="565.0"/> <!-- 民權吉林路口 -->