<?xml version="1.0" encoding="UTF-8"?>

<!-- generated on 11/10/20 21:56:28 by Eclipse SUMO netconvert Version 1.7.0
<configuration xmlns:xsi="http://www.w3.org/2001/XMLSchema-instance" xsi:noNamespaceSchemaLocation="http://sumo.dlr.de/xsd/netconvertConfiguration.xsd">

    <input>
        <type-files value="D:\SUMO\data\typemap\osmNetconvert.typ.xml"/>
        <osm-files value="osm_bbox.osm.xml"/>
    </input>

    <output>
        <output-file value="osm.net.xml"/>
        <output.street-names value="true"/>
        <output.original-names value="true"/>
        <ptstop-output value="osm_stops.add.xml"/>
        <ptline-output value="osm_ptlines.xml"/>
    </output>

    <projection>
        <proj.utm value="true"/>
    </projection>

    <processing>
        <geometry.remove value="true"/>
        <roundabouts.guess value="true"/>
    </processing>

    <tls_building>
        <tls.discard-simple value="true"/>
        <tls.join value="true"/>
        <tls.guess-signals value="true"/>
        <tls.default-type value="actuated"/>
    </tls_building>

    <ramp_guessing>
        <ramps.guess value="true"/>
    </ramp_guessing>

    <junctions>
        <junctions.join value="true"/>
        <junctions.corner-detail value="5"/>
    </junctions>

    <railway>
        <railway.topology.repair value="true"/>
        <railway.topology.repair.stop-turn value="true"/>
    </railway>

    <report>
        <verbose value="true"/>
        <aggregate-warnings value="5"/>
    </report>

</configuration>
-->

<additional xmlns:xsi="http://www.w3.org/2001/XMLSchema-instance" xsi:noNamespaceSchemaLocation="http://sumo.dlr.de/xsd/additional_file.xsd">
    <busStop id="-2491474584" name="新興國中" lane="-308987019#7_0" startPos="3.06" endPos="18.06" friendlyPos="true" lines="638 208"/>
    <busStop id="-2509549126" name="中山國小" lane="-308286090#11_0" startPos="20.33" endPos="35.33" friendlyPos="true" lines="208"/>
    <busStop id="-2509549137" name="景福宮" lane="-308286090#2_0" startPos="24.88" endPos="39.88" friendlyPos="true" lines="208"/>
    <busStop id="-2509668586" name="捷運圓山站(圓山公園)" lane="-241536989#0_0" startPos="21.45" endPos="36.45" friendlyPos="true" lines="208"/>
    <busStop id="-2657578307" name="吉林路底" lane="-260789406#4_0" startPos="0.74" endPos="15.74" friendlyPos="true" lines="685吉林 688 紅57 市民小巴9"/>
    <busStop id="-2657578308" name="新壽公園" lane="-260789406#19_0" startPos="5.45" endPos="20.45" friendlyPos="true" lines="685吉林 688 紅57 市民小巴9"/>
    <busStop id="-2657578311" name="新福里" lane="-260789406#16_0" startPos="21.37" endPos="36.37" friendlyPos="true" lines="685吉林 688 紅57 市民小巴9"/>
    <busStop id="-3188479009" name="庫倫街" lane="-264309964#0_0" startPos="71.98" endPos="86.98" friendlyPos="true" lines="2 9"/>
    <busStop id="-4066659498" name="建北站" lane="-793234595_0" startPos="0.00" endPos="8.15" friendlyPos="true" lines="復興幹線 688"/>
    <busStop id="-4082319500" name="錦州街口" lane="-308799570#5_0" startPos="32.49" endPos="47.49" friendlyPos="true" lines="市民小巴9"/>
    <busStop id="-4235856494" name="八號水門" lane="-407513547#2_0" startPos="5.11" endPos="16.94" friendlyPos="true" lines="市民小巴9"/>
    <busStop id="-4235856496@6102370" name="大佳河濱公園" lane="-424128311_0" startPos="63.69" endPos="77.92" friendlyPos="true" lines="市民小巴9"/>
    <busStop id="1166189365" name="捷運中山國中站" lane="401376480#3_0" startPos="41.78" endPos="56.78" friendlyPos="true" lines="685吉林 685 復興幹線 5 63"/>
    <busStop id="1223100051" name="中山國小" lane="198281391_0" startPos="639.47" endPos="839.47" friendlyPos="true">
        <access lane="313235566#3_0" pos="44.51" length="2.22" friendlyPos="1"/>
        <access lane="506597799#1_0" pos="74.53" length="21.88" friendlyPos="1"/>
        <access lane="52248857#0_0" pos="0.00" length="75.86" friendlyPos="1"/>
        <access lane="742681152_0" pos="72.96" length="35.42" friendlyPos="1"/>
        <access lane="742681153#1_0" pos="52.93" length="17.31" friendlyPos="1"/>
    </busStop>
    <busStop id="1483501124" name="民權龍江路口" lane="198589912#6_0" startPos="130.60" endPos="140.44" friendlyPos="true" lines="NH18 225區 225 967直 967 685吉林 688 285 685 復興幹線 5116 801 松江新生 617 63 民權幹線"/>
    <busStop id="1483501761" name="民權建國路口" lane="506599421#3_0" startPos="0.00" endPos="11.65" friendlyPos="true" lines="225區 225 967直 967 685吉林 688 285 685 復興幹線 5 5116 801 松江新生 617 63 民權幹線"/>
    <busStop id="1483501762" name="行天宮" lane="238707595#1_0" startPos="39.56" endPos="54.56" friendlyPos="true" lines="967直 967 298 復興幹線 676 松江新生 72 5116 643 1840 1550"/>
    <busStop id="2051219239" name="民權西路" lane="194618291_0" startPos="0.00" endPos="142.51" friendlyPos="true">
        <access lane="-52248916#0_0" pos="36.51" length="45.11" friendlyPos="1"/>
        <access lane="380944751#0_0" pos="52.46" length="42.82" friendlyPos="1"/>
        <access lane="380944751#1_0" pos="1.87" length="40.83" friendlyPos="1"/>
        <access lane="382754638#1_0" pos="21.79" length="15.08" friendlyPos="1"/>
        <access lane="382754645_0" pos="86.12" length="33.69" friendlyPos="1"/>
    </busStop>
    <busStop id="2061146022" name="中山國中" lane="195696239_0" startPos="0.00" endPos="99.81" friendlyPos="true">
        <access lane="-50914316#0_0" pos="53.02" length="38.09" friendlyPos="1"/>
        <access lane="264859962#3_0" pos="36.09" length="13.92" friendlyPos="1"/>
        <access lane="401376480#3_0" pos="16.86" length="9.39" friendlyPos="1"/>
        <access lane="50914316#0_0" pos="0.00" length="42.38" friendlyPos="1"/>
        <access lane="827099040#1_0" pos="48.98" length="32.18" friendlyPos="1"/>
    </busStop>
    <busStop id="2084404366" name="行天宮" lane="198281380_0" startPos="324.16" endPos="524.16" friendlyPos="true">
        <access lane="-593840519#1_0" pos="35.90" length="165.57" friendlyPos="1"/>
        <access lane="265736010#0_0" pos="153.54" length="17.86" friendlyPos="1"/>
        <access lane="495021759#5_0" pos="98.77" length="28.82" friendlyPos="1"/>
        <access lane="593840519#1_0" pos="0.00" length="160.88" friendlyPos="1"/>
        <access lane="827118546#2_0" pos="0.00" length="169.33" friendlyPos="1"/>
    </busStop>
    <busStop id="2084404443" name="中山國小" lane="198281393_0" startPos="638.96" endPos="838.96" friendlyPos="true">
        <access lane="313235566#3_0" pos="44.42" length="20.35" friendlyPos="1"/>
        <access lane="506597799#1_0" pos="74.63" length="3.75" friendlyPos="1"/>
        <access lane="52248857#0_0" pos="0.00" length="80.31" friendlyPos="1"/>
        <access lane="742681152_0" pos="73.06" length="17.29" friendlyPos="1"/>
        <access lane="742681153#1_0" pos="52.93" length="35.35" friendlyPos="1"/>
    </busStop>
    <busStop id="2183271156" name="民權松江路口" lane="241545656#4_0" startPos="99.95" endPos="114.95" friendlyPos="true" lines="225區 225 685吉林 688 敦化 685 801 63 617 民權幹線"/>
    <busStop id="2459652479" name="中山國小" lane="262879963#4_0" startPos="6.68" endPos="21.68" friendlyPos="true" lines="285 685 280直"/>
    <busStop id="2459652514" name="民族東路口" lane="262879963#13_0" startPos="9.12" endPos="24.12" friendlyPos="true" lines="285 685 280直"/>
    <busStop id="2459652521" name="稻江護校" lane="262879963#10_0" startPos="22.20" endPos="37.20" friendlyPos="true" lines="285 685 280直"/>
    <busStop id="2460552082" name="中山國小" lane="254326526#7_0" startPos="114.47" endPos="129.47" friendlyPos="true" lines="606 109 敦化 685 612 203 280直"/>
    <busStop id="2460552125" name="新興國中(新生)" lane="827108944#0_0" startPos="82.02" endPos="97.02" friendlyPos="true"/>
    <busStop id="2460552126" name="民族東路口" lane="254326526#3_0" startPos="62.40" endPos="77.40" friendlyPos="true" lines="606 109 敦化 685 612 203 280直"/>
    <busStop id="2460552127" name="稻江護校" lane="254326526#5_0" startPos="132.22" endPos="147.21" friendlyPos="true" lines="606 109 敦化 685 612 203 280直"/>
    <busStop id="2506289795" name="下埤里" lane="238707596#14_0" startPos="92.10" endPos="107.10" friendlyPos="true" lines="復興幹線 松江新生 643"/>
    <busStop id="2506289797" name="五常街口" lane="198589897#3_0" startPos="75.20" endPos="90.20" friendlyPos="true" lines="復興幹線 松江新生 33"/>
    <busStop id="2506289798" name="復興北村" lane="198589897#2_0" startPos="13.25" endPos="28.25" friendlyPos="true" lines="復興幹線 松江新生 643 33"/>
    <busStop id="2506289799" name="捷運行天宮站" lane="263056100#3_0" startPos="62.38" endPos="77.38" friendlyPos="true" lines="109 280 612 203 紅57 280直 676 松江新生 72"/>
    <busStop id="2506289800" name="新生公園（林安泰）" lane="238707595#9_0" startPos="53.53" endPos="68.53" friendlyPos="true" lines="298 復興幹線 676 松江新生 72 643"/>
    <busStop id="2506289801" name="新生公園（林安泰）" lane="338923678#0_0" startPos="0.00" endPos="9.71" friendlyPos="true" lines="72 市民小巴9"/>
    <busStop id="2506289802" name="民權建國路口" lane="506597809#1_0" startPos="147.14" endPos="162.14" friendlyPos="true" lines="225區 225 967直 967 685吉林 688 敦化 685 5116 801 63 617 民權幹線"/>
    <busStop id="2506289803" name="民權松江路口" lane="506597810#2_0" startPos="74.48" endPos="85.89" friendlyPos="true" lines="NH18 225區 225 685吉林 688 285 685 復興幹線 676 5 801 松江新生 617 63 民權幹線"/>
    <busStop id="2506289804" name="民權龍江路口" lane="506597812#2_0" startPos="126.11" endPos="141.11" friendlyPos="true" lines="225區 225 967直 967 685吉林 688 敦化 685 5116 801 63 617 民權幹線"/>
    <busStop id="2506289804@5311165" name="民權龍江路口" lane="506599421#1_0" startPos="4.33" endPos="19.33" friendlyPos="true" lines="5"/>
    <busStop id="2506289805" name="第二果菜市場" lane="238707596#10_0" startPos="15.48" endPos="30.48" friendlyPos="true" lines="復興幹線 松江新生 643"/>
    <busStop id="2506289838" name="臺北漁市" lane="238707596#6_0" startPos="6.79" endPos="21.79" friendlyPos="true" lines="復興幹線 松江新生 643"/>
    <busStop id="2506289848" name="行天宮" lane="260789415#8_0" startPos="40.29" endPos="55.29" friendlyPos="true" lines="9025 5116 72 1840"/>
    <busStop id="2506754602" name="捷運中山國中站" lane="264859962#2_0" startPos="53.00" endPos="68.00" friendlyPos="true" lines="225 685吉林 復興幹線 685 5116 643 63"/>
    <busStop id="2509549125" name="中山國小" lane="308286090#10_0" startPos="14.30" endPos="29.30" friendlyPos="true" lines="208"/>
    <busStop id="2509549129" name="台北市立美術館" lane="49795876#0_0" startPos="83.88" endPos="98.88" friendlyPos="true" lines="21 208 260 中山幹線 247 1717 觀光巴士藍線 內湖"/>
    <busStop id="2509549130" name="台北市立美術館" lane="49795872#1_0" startPos="156.70" endPos="171.70" friendlyPos="true" lines="21 260 208 中山幹線 612 1717 247 觀光巴士藍線 內湖"/>
    <busStop id="2509549131" name="大同大學" lane="241811787#1_0" startPos="75.14" endPos="90.14" friendlyPos="true" lines="208"/>
    <busStop id="2509549132" name="大同大學" lane="241811788#4_0" startPos="14.53" endPos="29.53" friendlyPos="true" lines="208"/>
    <busStop id="2509549136" name="新興國中" lane="308987019#7_0" startPos="18.99" endPos="33.99" friendlyPos="true" lines="520 638 208"/>
    <busStop id="2509549138" name="景福宮" lane="308286090#1_0" startPos="23.72" endPos="38.72" friendlyPos="true" lines="208"/>
    <busStop id="2509668573" name="花博公園" lane="241536973#1_0" startPos="53.12" endPos="68.12" friendlyPos="true" lines="208"/>
    <busStop id="2509668574" name="花博公園" lane="241536967#1_0" startPos="167.49" endPos="182.49" friendlyPos="true" lines="21 208"/>
    <busStop id="2517658824" name="大同國小" lane="273012211#2_0" startPos="58.75" endPos="73.75" friendlyPos="true" lines="636 966 280 616 306 承德幹線 1501"/>
    <busStop id="2517658825" name="大同國小" lane="264689872#7_0" startPos="6.42" endPos="21.42" friendlyPos="true" lines="280 616 承德幹線"/>
    <busStop id="2517658838" name="就業服務處" lane="300090400#7_0" startPos="28.45" endPos="43.45" friendlyPos="true" lines="280 616 承德幹線"/>
    <busStop id="2517658841" name="庫倫街口" lane="299804823#2_0" startPos="58.32" endPos="73.32" friendlyPos="true" lines="966 280 616 承德幹線 1819"/>
    <busStop id="2517658844" name="庫倫街口" lane="300090400#1_0" startPos="23.90" endPos="38.90" friendlyPos="true" lines="280 616 9023 承德幹線"/>
    <busStop id="2517658856" name="成淵高中" lane="273012211#5_0" startPos="3.62" endPos="18.62" friendlyPos="true" lines="306 承德幹線"/>
    <busStop id="2517658859" name="成淵高中" lane="732390620#1_0" startPos="49.88" endPos="64.88" friendlyPos="true" lines="NH18 2001 292副 966 292 承德幹線 63 民權幹線"/>
    <busStop id="2517658859@10124604" name="成淵高中" lane="226831247_0" startPos="0.00" endPos="7.50" friendlyPos="true" lines="NH18"/>
    <busStop id="2517658893" name="明倫高中" lane="50893520#6_0" startPos="64.18" endPos="79.18" friendlyPos="true" lines="280 616 41 承德幹線"/>
    <busStop id="2517658931" name="民族承德路口" lane="437870658#1_0" startPos="31.40" endPos="46.40" friendlyPos="true" lines="636 280 616 306 承德幹線"/>
    <busStop id="2517658936" name="民族承德路口" lane="299804824#1_0" startPos="4.86" endPos="19.86" friendlyPos="true" lines="280 616 承德幹線"/>
    <busStop id="2517659483" name="防癌協會" lane="264689872#2_0" startPos="21.69" endPos="36.69" friendlyPos="true" lines="280 616 承德幹線"/>
    <busStop id="2657578306" name="吉林路底" lane="260789406#4_0" startPos="16.96" endPos="31.96" friendlyPos="true" lines="685吉林 688 紅57 市民小巴9"/>
    <busStop id="2657578309" name="新壽公園" lane="260789406#19_0" startPos="14.03" endPos="29.03" friendlyPos="true" lines="685吉林 688 紅57 市民小巴9"/>
    <busStop id="2657578310" name="新生公園" lane="407513572#1_0" startPos="158.24" endPos="173.24" friendlyPos="true" lines="688 市民小巴9"/>
    <busStop id="2657578312" name="新福里" lane="260789406#16_0" startPos="17.62" endPos="32.62" friendlyPos="true" lines="685吉林 688 紅57 市民小巴9"/>
    <busStop id="2657578313" name="民權復興路口" lane="506599424#5_0" startPos="0.40" endPos="15.40" friendlyPos="true" lines="NH18 225區 225 967直 967 688 285 5116 801 33 617 民權幹線"/>
    <busStop id="2657578314" name="民權復興路口" lane="772891699#0_0" startPos="2.95" endPos="17.95" friendlyPos="true" lines="967直 967 688 敦化 801 1840 617 民權幹線"/>
    <busStop id="2657578315" name="民權敦化路口" lane="260789418#7_0" startPos="0.00" endPos="7.73" friendlyPos="true" lines="NH18 225區 225 967直 967 688 285 5116 801 33 617 民權幹線"/>
    <busStop id="2657578316" name="民權敦化路口" lane="506599423#1_0" startPos="70.71" endPos="85.71" friendlyPos="true" lines="225區 967直 967 688 敦化 801 33 617 民權幹線"/>
    <busStop id="2685395656" name="民權吉林路口" lane="241545654#1_0" startPos="101.48" endPos="111.55" friendlyPos="true" lines="NH18 225區 225 285 280 685 612 41 280直 801 226 617 63 民權幹線"/>
    <busStop id="2685395657" name="民權松江路口" lane="593840518#3_0" startPos="38.58" endPos="53.58" friendlyPos="true" lines="280 612 41 紅57 280直 676 226"/>
    <busStop id="2686831915" name="民權吉林路口" lane="506597805#1_0" startPos="82.96" endPos="97.96" friendlyPos="true" lines="225區 225 109 敦化 280 685 612 203 280直 801 63 617 民權幹線"/>
    <busStop id="2700950441" name="民權東路口" lane="506599423#4_0" startPos="168.06" endPos="183.06" friendlyPos="true" lines="敦化 33 民權幹線"/>
    <busStop id="2702173283" name="大同大學" lane="515156236#1_0" startPos="102.02" endPos="117.02" friendlyPos="true" lines="中山幹線 247 1717 內湖"/>
    <busStop id="2702173288" name="大同大學" lane="515156251#1_0" startPos="79.14" endPos="94.14" friendlyPos="true" lines="260 中山幹線 612 1717 247 內湖"/>
    <busStop id="2702175363" name="大同公司 (晴光市場)" lane="515156259#1_0" startPos="40.65" endPos="55.65" friendlyPos="true" lines="中山幹線 247 1717 觀光巴士藍線 內湖"/>
    <busStop id="2702175895" name="大同公司 (晴光市場)" lane="319208670#0_0" startPos="31.70" endPos="46.70" friendlyPos="true" lines="中山幹線 612 1717 247 觀光巴士藍線 內湖"/>
    <busStop id="2702176992" name="台泥大樓(馬偕醫院)" lane="278492469#3_0" startPos="31.60" endPos="46.60" friendlyPos="true" lines="636 221 中山幹線 247 1717 1819 內湖"/>
    <busStop id="2702176993" name="台泥大樓(馬偕醫院)" lane="515156266#2_0" startPos="21.69" endPos="36.69" friendlyPos="true" lines="中山幹線 1717 247 內湖"/>
    <busStop id="2703510764" name="民權中山路口" lane="506596676#2_0" startPos="14.20" endPos="29.20" friendlyPos="true" lines="520 225區 225 638 280 801 63 617 民權幹線"/>
    <busStop id="2703510765" name="民權中山路口" lane="506597801#4_0" startPos="18.36" endPos="33.36" friendlyPos="true" lines="NH18 520 225區 225 280 41 801 226 617 63 民權幹線"/>
    <busStop id="2703511529" name="捷運中山國小站" lane="506596684#6_0" startPos="19.28" endPos="34.28" friendlyPos="true" lines="520 225區 225 280 801 63 617 民權幹線"/>
    <busStop id="2703511530" name="捷運中山國小站" lane="313235566#3_0" startPos="99.74" endPos="114.74" friendlyPos="true" lines="NH18 225區 225 280 41 801 226 617 63 民權幹線"/>
    <busStop id="2713414521" name="捷運民權西路站" lane="299291335#2_0" startPos="0.00" endPos="13.18" friendlyPos="true" lines="636 520 221 225區 225 638 616 801 63 617 民權幹線"/>
    <busStop id="280503294" name="行天宮" lane="198281375_0" startPos="577.76" endPos="777.76" friendlyPos="true">
        <access lane="-593840519#1_0" pos="35.90" length="161.04" friendlyPos="1"/>
        <access lane="265736010#0_0" pos="154.70" length="1.21" friendlyPos="1"/>
        <access lane="495021759#4_0" pos="0.20" length="166.89" friendlyPos="1"/>
        <access lane="495021759#5_0" pos="97.73" length="12.15" friendlyPos="1"/>
        <access lane="593840519#1_0" pos="0.00" length="156.27" friendlyPos="1"/>
    </busStop>
    <busStop id="3064960375" name="松江新村" lane="263056100#2_0" startPos="64.53" endPos="79.53" friendlyPos="true" lines="5201"/>
    <busStop id="3132488960" name="捷運中山國小站" lane="506597801#1_0" startPos="78.95" endPos="93.95" friendlyPos="true" lines="612"/>
    <busStop id="3188479010" name="捷運民權西路站" lane="299403732#0_0" startPos="85.58" endPos="99.64" friendlyPos="true" lines="225區 225 41 801 226 617 63 民權幹線"/>
    <busStop id="3419306361" name="榮星花園" lane="238707587#1_0" startPos="81.15" endPos="96.15" friendlyPos="true" lines="298 676"/>
    <busStop id="3419306362" name="第二果菜市場" lane="668037871#2_0" startPos="34.80" endPos="42.53" friendlyPos="true" lines="298 676"/>
    <busStop id="3495094873" name="民權西路" lane="194618356_0" startPos="110.60" endPos="235.72" friendlyPos="true" lines="R">
        <access lane="265725164#2_0" pos="60.84" length="12.15" friendlyPos="1"/>
        <access lane="299403732#0_0" pos="9.90" length="14.59" friendlyPos="1"/>
        <access lane="382754632#1_0" pos="3.31" length="18.67" friendlyPos="1"/>
        <access lane="382754632#2_0" pos="0.00" length="25.25" friendlyPos="1"/>
        <access lane="382754638#0_0" pos="9.93" length="25.50" friendlyPos="1"/>
    </busStop>
    <busStop id="3495094873@4250354" name="民權西路" lane="198281393_0" startPos="0.00" endPos="112.31" friendlyPos="true" lines="O">
        <access lane="265725164#2_0" pos="60.84" length="12.15" friendlyPos="1"/>
        <access lane="299403732#0_0" pos="9.90" length="14.59" friendlyPos="1"/>
        <access lane="382754632#1_0" pos="3.31" length="18.67" friendlyPos="1"/>
        <access lane="382754632#2_0" pos="0.00" length="25.25" friendlyPos="1"/>
        <access lane="382754638#0_0" pos="9.93" length="25.50" friendlyPos="1"/>
    </busStop>
    <busStop id="3495094873@5633242" name="民權西路" lane="194618300_0" startPos="0.00" endPos="132.04" friendlyPos="true" lines="R">
        <access lane="265725164#2_0" pos="60.84" length="12.15" friendlyPos="1"/>
        <access lane="299403732#0_0" pos="9.90" length="14.59" friendlyPos="1"/>
        <access lane="382754632#1_0" pos="3.31" length="18.67" friendlyPos="1"/>
        <access lane="382754632#2_0" pos="0.00" length="25.25" friendlyPos="1"/>
        <access lane="382754638#0_0" pos="9.93" length="25.50" friendlyPos="1"/>
    </busStop>
    <busStop id="3495094874" name="圓山" lane="265151055_0" startPos="7712.98" endPos="7308.91" friendlyPos="true" lines="R">
        <access lane="245752581#1_0" pos="37.02" length="24.63" friendlyPos="1"/>
        <access lane="300674610#7_0" pos="36.92" length="16.43" friendlyPos="1"/>
        <access lane="50893516#0_0" pos="40.83" length="29.37" friendlyPos="1"/>
        <access lane="824598120#1_0" pos="0.20" length="28.10" friendlyPos="1"/>
        <access lane="824598122#2_0" pos="15.17" length="14.18" friendlyPos="1"/>
    </busStop>
    <busStop id="3497302607" name="中山國中" lane="195696237_0" startPos="0.00" endPos="99.78" friendlyPos="true" lines="BR">
        <access lane="-50914316#0_0" pos="53.02" length="39.58" friendlyPos="1"/>
        <access lane="264859962#3_0" pos="36.18" length="10.69" friendlyPos="1"/>
        <access lane="401376480#3_0" pos="16.77" length="12.63" friendlyPos="1"/>
        <access lane="50914316#0_0" pos="0.00" length="43.71" friendlyPos="1"/>
        <access lane="827099040#1_0" pos="48.90" length="28.95" friendlyPos="1"/>
    </busStop>
    <busStop id="3577916321" name="大佳疏散門(九號水門)" lane="352006355#1_0" startPos="0.00" endPos="10.57" friendlyPos="true"/>
    <busStop id="373400210" name="中山國中" lane="195696237_0" startPos="0.00" endPos="99.78" friendlyPos="true">
        <access lane="-50914316#0_0" pos="53.02" length="41.22" friendlyPos="1"/>
        <access lane="264859962#3_0" pos="35.99" length="8.15" friendlyPos="1"/>
        <access lane="401376480#3_0" pos="16.97" length="15.16" friendlyPos="1"/>
        <access lane="50914316#0_0" pos="0.00" length="45.24" friendlyPos="1"/>
        <access lane="827099040#1_0" pos="49.11" length="26.42" friendlyPos="1"/>
    </busStop>
    <busStop id="3794154665" name="成淵高中" lane="312109408#6_0" startPos="32.20" endPos="47.20" friendlyPos="true" lines="292副 292"/>
    <busStop id="3812564391" name="中山國小" lane="198281393_0" startPos="638.44" endPos="838.44" friendlyPos="true" lines="O">
        <access lane="313235566#3_0" pos="44.86" length="10.82" friendlyPos="1"/>
        <access lane="506597799#1_0" pos="74.19" length="13.29" friendlyPos="1"/>
        <access lane="52248857#0_0" pos="0.00" length="78.04" friendlyPos="1"/>
        <access lane="742681152_0" pos="73.40" length="26.84" friendlyPos="1"/>
        <access lane="742681153#1_0" pos="52.93" length="25.79" friendlyPos="1"/>
    </busStop>
    <busStop id="3881368454" name="民族承德路口" lane="299804824#2_0" startPos="10.25" endPos="25.25" friendlyPos="true" lines="2 9"/>
    <busStop id="3937135661" name="大佳國小" lane="779270993#3_0" startPos="123.15" endPos="138.15" friendlyPos="true" lines="72"/>
    <busStop id="3937135664" name="新喜里" lane="260789415#0_0" startPos="71.73" endPos="86.73" friendlyPos="true" lines="72"/>
    <busStop id="3937135666" name="河濱公園大佳段" lane="779270993#0_0" startPos="30.38" endPos="45.38" friendlyPos="true" lines="72"/>
    <busStop id="4066659498@3500859" name="建北站" lane="312879610#1_0" startPos="2.97" endPos="17.97" friendlyPos="true" lines="688 復興幹線"/>
    <busStop id="4082319377" name="建國錦州街口" lane="310620430#3_0" startPos="26.72" endPos="41.72" friendlyPos="true" lines="1960"/>
    <busStop id="4082319379" name="新生公園" lane="50202893#2_0" startPos="35.43" endPos="50.43" friendlyPos="true" lines="685吉林"/>
    <busStop id="4082319380" name="新生公園" lane="241545653#1_0" startPos="144.97" endPos="159.97" friendlyPos="true" lines="685吉林 市民小巴9"/>
    <busStop id="4082319501" name="錦州街口" lane="308799570#5_0" startPos="11.97" endPos="26.97" friendlyPos="true" lines="市民小巴9"/>
    <busStop id="4235856495" name="八號水門" lane="407513547#3_0" startPos="36.27" endPos="51.27" friendlyPos="true" lines="市民小巴9"/>
    <busStop id="4235856496" name="大佳河濱公園" lane="424128313#0_0" startPos="0.00" endPos="7.50" friendlyPos="true" lines="市民小巴9"/>
    <busStop id="4400929026" name="捷運圓山站(玉門街)" lane="241536984_0" startPos="44.35" endPos="59.33" friendlyPos="true" lines="內科圓山 21 208"/>
    <busStop id="4400929026@3257863" name="捷運圓山站(玉門街)" lane="241536989#0_0" startPos="0.00" endPos="7.50" friendlyPos="true" lines="208"/>
    <busStop id="4838086676" name="捷運民權西路站" lane="299403732#0_0" startPos="17.28" endPos="32.28" friendlyPos="true" lines="NH18 520"/>
    <busStop id="4961039545" name="行天宮" lane="260789415#7_0" startPos="47.88" endPos="62.88" friendlyPos="true" lines="967直 967"/>
    <busStop id="623059637" name="第二果菜市場" lane="238707596#10_0" startPos="15.06" endPos="30.06" friendlyPos="true"/>
    <busStop id="632565244" name="下埤里" lane="238707596#14_0" startPos="91.64" endPos="106.64" friendlyPos="true"/>
    <busStop id="6333316060" name="民權西路" lane="198281391_0" startPos="0.00" endPos="181.84" friendlyPos="true">
        <access lane="299403731#0_0" pos="42.81" length="29.65" friendlyPos="1"/>
        <access lane="378429450_0" pos="0.00" length="50.68" friendlyPos="1"/>
        <access lane="494749370_0" pos="0.00" length="76.49" friendlyPos="1"/>
        <access lane="506596678#1_0" pos="59.20" length="2.69" friendlyPos="1"/>
        <access lane="506596678#2_0" pos="0.00" length="55.09" friendlyPos="1"/>
    </busStop>
    <busStop id="6333316062" name="民權西路" lane="198281393_0" startPos="0.00" endPos="185.88" friendlyPos="true">
        <access lane="299403731#0_0" pos="47.45" length="7.85" friendlyPos="1"/>
        <access lane="378429450_0" pos="0.00" length="62.35" friendlyPos="1"/>
        <access lane="380944751#0_0" pos="0.00" length="75.34" friendlyPos="1"/>
        <access lane="506596678#1_0" pos="54.59" length="19.12" friendlyPos="1"/>
        <access lane="506596678#2_0" pos="0.00" length="64.82" friendlyPos="1"/>
    </busStop>
    <busStop id="7417264340" name="臺北漁市" lane="238707596#6_0" startPos="6.73" endPos="21.73" friendlyPos="true"/>
    <busStop id="7417264341" name="建北站" lane="793234594_0" startPos="0.00" endPos="7.50" friendlyPos="true"/>
    <busStop id="7478389984" name="民權西路" lane="194618363_0" startPos="0.00" endPos="139.76" friendlyPos="true">
        <access lane="380944751#0_0" pos="52.46" length="24.54" friendlyPos="1"/>
        <access lane="380944751#1_0" pos="3.26" length="19.57" friendlyPos="1"/>
        <access lane="382754638#1_0" pos="23.65" length="36.25" friendlyPos="1"/>
        <access lane="382754645_0" pos="85.14" length="12.39" friendlyPos="1"/>
        <access lane="52248901_0" pos="110.49" length="26.38" friendlyPos="1"/>
    </busStop>
</additional>
