<?xml version="1.0" encoding="UTF-8"?>
<!-- generated on 2020-11-10 21:56:30.815210 by osmWebWizard.py v1_7_0+0000-714814baed
  options: 
-->
<routes xmlns:xsi="http://www.w3.org/2001/XMLSchema-instance" xsi:noNamespaceSchemaLocation="http://sumo.dlr.de/xsd/routes_file.xsd">
    <vType id="pt_bus" vClass="bus"/>
    <vType id="pt_tram" vClass="tram"/>
    <vType id="pt_train" vClass="rail"/>
    <vType id="pt_subway" vClass="rail_urban"/>
    <vType id="pt_light_rail" vClass="rail_urban"/>
    <vType id="pt_monorail" vClass="rail"/>
    <vType id="pt_trolleybus" vClass="bus"/>
    <vType id="pt_aerialway" vClass="bus"/>
    <vType id="pt_ferry" vClass="ship"/>
    <trip id="0_bus_內科圓山:0" type="pt_bus" depart="0" departLane="best" from="241536929#0" to="241536984">
        <stop busStop="4400929026" duration="30"/>
    </trip>
    <trip id="1_bus_內科圓山:1" type="pt_bus" depart="3" departLane="best" from="241536984" to="266052141">
        <stop busStop="4400929026" duration="30"/>
    </trip>
    <trip id="2_bus_NH18:0" type="pt_bus" depart="6" departLane="best" from="260789418#0" to="732390620#2">
        <stop busStop="2657578315" duration="30"/>
        <stop busStop="2657578313" duration="30"/>
        <stop busStop="1483501124" duration="30"/>
        <stop busStop="2506289803" duration="30"/>
        <stop busStop="2685395656" duration="30"/>
        <stop busStop="2703511530" duration="30"/>
        <stop busStop="2703510765" duration="30"/>
        <stop busStop="4838086676" duration="30"/>
        <stop busStop="2517658859" duration="30"/>
    </trip>
    <trip id="3_bus_NH18:1" type="pt_bus" depart="11" departLane="best" from="226831247" to="264410144">
        <stop busStop="2517658859@10124604" duration="30"/>
    </trip>
    <trip id="4_bus_636:0" type="pt_bus" depart="15" departLane="best" from="368617667#0" to="265725163#1">
        <stop busStop="2517658931" duration="30"/>
        <stop busStop="2517658824" duration="30"/>
    </trip>
    <trip id="5_bus_636:1" type="pt_bus" depart="15" departLane="best" from="299291335#0" to="278492469#4">
        <stop busStop="2713414521" duration="30"/>
        <stop busStop="2702176992" duration="30"/>
    </trip>
    <trip id="6_bus_520:0" type="pt_bus" depart="17" departLane="best" from="308987019#0" to="265725163#1">
        <stop busStop="2509549136" duration="30"/>
        <stop busStop="2703510765" duration="30"/>
        <stop busStop="4838086676" duration="30"/>
    </trip>
    <trip id="7_bus_520:1" type="pt_bus" depart="19" departLane="best" from="299291335#0" to="827108944#0">
        <stop busStop="2713414521" duration="30"/>
        <stop busStop="2703510764" duration="30"/>
        <stop busStop="2703511529" duration="30"/>
        <stop busStop="2460552125" duration="30"/>
    </trip>
    <trip id="8_bus_221:0" type="pt_bus" depart="27" departLane="best" from="299291335#0" to="278492469#4">
        <stop busStop="2713414521" duration="30"/>
        <stop busStop="2702176992" duration="30"/>
    </trip>
    <trip id="9_bus_225區:0" type="pt_bus" depart="28" departLane="best" from="260789418#0" to="265725163#1">
        <stop busStop="2657578315" duration="30"/>
        <stop busStop="2657578313" duration="30"/>
        <stop busStop="1483501124" duration="30"/>
        <stop busStop="1483501761" duration="30"/>
        <stop busStop="2506289803" duration="30"/>
        <stop busStop="2685395656" duration="30"/>
        <stop busStop="2703511530" duration="30"/>
        <stop busStop="2703510765" duration="30"/>
        <stop busStop="3188479010" duration="30"/>
    </trip>
    <trip id="10_bus_225區:1" type="pt_bus" depart="38" departLane="best" from="299291335#0" to="264410144">
        <stop busStop="2713414521" duration="30"/>
        <stop busStop="2703510764" duration="30"/>
        <stop busStop="2703511529" duration="30"/>
        <stop busStop="2686831915" duration="30"/>
        <stop busStop="2183271156" duration="30"/>
        <stop busStop="2506289802" duration="30"/>
        <stop busStop="2506289804" duration="30"/>
        <stop busStop="2657578316" duration="30"/>
    </trip>
    <trip id="11_bus_225:0" type="pt_bus" depart="47" departLane="best" from="299291335#0" to="264859962#4">
        <stop busStop="2713414521" duration="30"/>
        <stop busStop="2703510764" duration="30"/>
        <stop busStop="2703511529" duration="30"/>
        <stop busStop="2686831915" duration="30"/>
        <stop busStop="2183271156" duration="30"/>
        <stop busStop="2506289802" duration="30"/>
        <stop busStop="2506289804" duration="30"/>
        <stop busStop="2506754602" duration="30"/>
    </trip>
    <trip id="12_bus_225:1" type="pt_bus" depart="52" departLane="best" from="260789418#0" to="265725163#1">
        <stop busStop="2657578315" duration="30"/>
        <stop busStop="2657578313" duration="30"/>
        <stop busStop="1483501124" duration="30"/>
        <stop busStop="1483501761" duration="30"/>
        <stop busStop="2506289803" duration="30"/>
        <stop busStop="2685395656" duration="30"/>
        <stop busStop="2703511530" duration="30"/>
        <stop busStop="2703510765" duration="30"/>
        <stop busStop="3188479010" duration="30"/>
    </trip>
    <trip id="13_bus_967直:0" type="pt_bus" depart="54" departLane="best" from="260789418#0" to="291325256">
        <stop busStop="2657578315" duration="30"/>
        <stop busStop="2657578313" duration="30"/>
        <stop busStop="1483501124" duration="30"/>
        <stop busStop="1483501761" duration="30"/>
        <stop busStop="1483501762" duration="30"/>
    </trip>
    <trip id="14_bus_967直:1" type="pt_bus" depart="55" departLane="best" from="49164288" to="241545650#2">
        <stop busStop="4961039545" duration="30"/>
        <stop busStop="2506289802" duration="30"/>
        <stop busStop="2506289804" duration="30"/>
        <stop busStop="2657578314" duration="30"/>
        <stop busStop="2657578316" duration="30"/>
    </trip>
    <trip id="15_bus_967:0" type="pt_bus" depart="58" departLane="best" from="260789418#0" to="291325256">
        <stop busStop="2657578315" duration="30"/>
        <stop busStop="2657578313" duration="30"/>
        <stop busStop="1483501124" duration="30"/>
        <stop busStop="1483501761" duration="30"/>
        <stop busStop="1483501762" duration="30"/>
    </trip>
    <trip id="16_bus_967:1" type="pt_bus" depart="60" departLane="best" from="49164288" to="241545650#2">
        <stop busStop="4961039545" duration="30"/>
        <stop busStop="2506289802" duration="30"/>
        <stop busStop="2506289804" duration="30"/>
        <stop busStop="2657578314" duration="30"/>
        <stop busStop="2657578316" duration="30"/>
    </trip>
    <trip id="17_bus_2001:0" type="pt_bus" depart="65" departLane="best" from="368617667#0" to="732390620#2">
        <stop busStop="2517658859" duration="30"/>
    </trip>
    <trip id="18_bus_292副:0" type="pt_bus" depart="66" departLane="best" from="312109408#0" to="265725163#1">
        <stop busStop="3794154665" duration="30"/>
    </trip>
    <trip id="19_bus_292副:1" type="pt_bus" depart="91" departLane="best" from="299291335#0" to="732390620#2">
        <stop busStop="2517658859" duration="30"/>
    </trip>
    <trip id="20_bus_685吉林:0" type="pt_bus" depart="93" departLane="best" from="50893489" to="264859962#4">
        <stop busStop="4082319379" duration="30"/>
        <stop busStop="2657578306" duration="30"/>
        <stop busStop="2657578312" duration="30"/>
        <stop busStop="2657578309" duration="30"/>
        <stop busStop="2183271156" duration="30"/>
        <stop busStop="2506289802" duration="30"/>
        <stop busStop="2506289804" duration="30"/>
        <stop busStop="2506754602" duration="30"/>
    </trip>
    <trip id="21_bus_685吉林:1" type="pt_bus" depart="98" departLane="best" from="401376480#0" to="260152355">
        <stop busStop="1166189365" duration="30"/>
        <stop busStop="1483501124" duration="30"/>
        <stop busStop="1483501761" duration="30"/>
        <stop busStop="2506289803" duration="30"/>
        <stop busStop="-2657578308" duration="30"/>
        <stop busStop="-2657578311" duration="30"/>
        <stop busStop="-2657578307" duration="30"/>
        <stop busStop="4082319380" duration="30"/>
    </trip>
    <trip id="22_bus_21:0" type="pt_bus" depart="102" departLane="best" from="241536929#0" to="241536984">
        <stop busStop="2509549129" duration="30"/>
        <stop busStop="2509668574" duration="30"/>
        <stop busStop="4400929026" duration="30"/>
    </trip>
    <trip id="23_bus_21:1" type="pt_bus" depart="107" departLane="best" from="241536984" to="266052141">
        <stop busStop="4400929026" duration="30"/>
        <stop busStop="2509549130" duration="30"/>
    </trip>
    <trip id="24_bus_966:0" type="pt_bus" depart="119" departLane="best" from="264309964#0" to="732390620#2">
        <stop busStop="2517658841" duration="30"/>
        <stop busStop="2517658824" duration="30"/>
        <stop busStop="2517658859" duration="30"/>
    </trip>
    <trip id="25_bus_260:0" type="pt_bus" depart="125" departLane="best" from="515156277#0" to="266052141">
        <stop busStop="2702173288" duration="30"/>
        <stop busStop="2509549130" duration="30"/>
    </trip>
    <trip id="26_bus_638:0" type="pt_bus" depart="126" departLane="best" from="308987019#0" to="265725163#1">
        <stop busStop="2509549136" duration="30"/>
    </trip>
    <trip id="27_bus_638:1" type="pt_bus" depart="131" departLane="best" from="299291335#0" to="-308987019#1">
        <stop busStop="2713414521" duration="30"/>
        <stop busStop="2703510764" duration="30"/>
        <stop busStop="-2491474584" duration="30"/>
    </trip>
    <trip id="28_bus_復興幹線:0" type="pt_bus" depart="131" departLane="best" from="-793234595" to="264859962#4">
        <stop busStop="-4066659498" duration="30"/>
        <stop busStop="2506289838" duration="30"/>
        <stop busStop="2506289805" duration="30"/>
        <stop busStop="2506289795" duration="30"/>
        <stop busStop="2506289798" duration="30"/>
        <stop busStop="2506289797" duration="30"/>
        <stop busStop="2506754602" duration="30"/>
    </trip>
    <trip id="29_bus_292:0" type="pt_bus" depart="132" departLane="best" from="299291335#0" to="732390620#2">
        <stop busStop="2517658859" duration="30"/>
    </trip>
    <trip id="30_bus_208:0" type="pt_bus" depart="133" departLane="best" from="241536929#0" to="-308987019#1">
        <stop busStop="2509549129" duration="30"/>
        <stop busStop="2509668574" duration="30"/>
        <stop busStop="4400929026@3257863" duration="30"/>
        <stop busStop="-2509668586" duration="30"/>
        <stop busStop="2509668573" duration="30"/>
        <stop busStop="2509549131" duration="30"/>
        <stop busStop="2509549138" duration="30"/>
        <stop busStop="2509549125" duration="30"/>
        <stop busStop="-2491474584" duration="30"/>
    </trip>
    <trip id="31_bus_688:0" type="pt_bus" depart="136" departLane="best" from="-793234595" to="241545650#2">
        <stop busStop="-4066659498" duration="30"/>
        <stop busStop="2657578310" duration="30"/>
        <stop busStop="2657578306" duration="30"/>
        <stop busStop="2657578312" duration="30"/>
        <stop busStop="2657578309" duration="30"/>
        <stop busStop="2183271156" duration="30"/>
        <stop busStop="2506289802" duration="30"/>
        <stop busStop="2506289804" duration="30"/>
        <stop busStop="2657578314" duration="30"/>
        <stop busStop="2657578316" duration="30"/>
    </trip>
    <trip id="32_bus_208:1" type="pt_bus" depart="137" departLane="best" from="308987019#0" to="266052141">
        <stop busStop="2509549136" duration="30"/>
        <stop busStop="-2509549126" duration="30"/>
        <stop busStop="-2509549137" duration="30"/>
        <stop busStop="2509549132" duration="30"/>
        <stop busStop="2509668574" duration="30"/>
        <stop busStop="4400929026" duration="30"/>
        <stop busStop="-2509668586" duration="30"/>
        <stop busStop="2509668573" duration="30"/>
        <stop busStop="2509549130" duration="30"/>
    </trip>
    <trip id="33_bus_606:0" type="pt_bus" depart="139" departLane="best" from="50893489" to="827108944#0">
        <stop busStop="2460552126" duration="30"/>
        <stop busStop="2460552127" duration="30"/>
        <stop busStop="2460552082" duration="30"/>
        <stop busStop="2460552125" duration="30"/>
    </trip>
    <trip id="34_subway_R:0" type="pt_subway" depart="147" departLane="best" from="265151055" to="194618339">
        <stop busStop="3495094874" duration="30"/>
        <stop busStop="3495094873" duration="30"/>
    </trip>
    <trip id="35_bus_2:0" type="pt_bus" depart="157" departLane="best" from="368617667#0" to="-264309964#0">
        <stop busStop="3881368454" duration="30"/>
        <stop busStop="-3188479009" duration="30"/>
    </trip>
    <trip id="36_bus_688:1" type="pt_bus" depart="158" departLane="best" from="260789418#0" to="312879610#1">
        <stop busStop="2657578315" duration="30"/>
        <stop busStop="2657578313" duration="30"/>
        <stop busStop="1483501124" duration="30"/>
        <stop busStop="1483501761" duration="30"/>
        <stop busStop="2506289803" duration="30"/>
        <stop busStop="-2657578308" duration="30"/>
        <stop busStop="-2657578311" duration="30"/>
        <stop busStop="-2657578307" duration="30"/>
        <stop busStop="4066659498@3500859" duration="30"/>
    </trip>
    <trip id="37_bus_260:1" type="pt_bus" depart="158" departLane="best" from="241536929#0" to="278492469#4">
        <stop busStop="2509549129" duration="30"/>
    </trip>
    <trip id="38_bus_109:0" type="pt_bus" depart="160" departLane="best" from="50893489" to="263056100#3">
        <stop busStop="2460552126" duration="30"/>
        <stop busStop="2460552127" duration="30"/>
        <stop busStop="2460552082" duration="30"/>
        <stop busStop="2686831915" duration="30"/>
        <stop busStop="2506289799" duration="30"/>
    </trip>
    <trip id="39_bus_敦化:0" type="pt_bus" depart="160" departLane="best" from="50893489" to="241545650#2">
        <stop busStop="2460552126" duration="30"/>
        <stop busStop="2460552127" duration="30"/>
        <stop busStop="2460552082" duration="30"/>
        <stop busStop="2686831915" duration="30"/>
        <stop busStop="2183271156" duration="30"/>
        <stop busStop="2506289802" duration="30"/>
        <stop busStop="2506289804" duration="30"/>
        <stop busStop="2657578314" duration="30"/>
        <stop busStop="2657578316" duration="30"/>
        <stop busStop="2700950441" duration="30"/>
    </trip>
    <trip id="40_bus_285:0" type="pt_bus" depart="160" departLane="best" from="260789418#0" to="260152355">
        <stop busStop="2657578315" duration="30"/>
        <stop busStop="2657578313" duration="30"/>
        <stop busStop="1483501124" duration="30"/>
        <stop busStop="1483501761" duration="30"/>
        <stop busStop="2506289803" duration="30"/>
        <stop busStop="2685395656" duration="30"/>
        <stop busStop="2459652479" duration="30"/>
        <stop busStop="2459652521" duration="30"/>
        <stop busStop="2459652514" duration="30"/>
    </trip>
    <trip id="41_bus_中山幹線:0" type="pt_bus" depart="165" departLane="best" from="241536929#0" to="278492469#4">
        <stop busStop="2509549129" duration="30"/>
        <stop busStop="2702173283" duration="30"/>
        <stop busStop="2702175363" duration="30"/>
        <stop busStop="2702176992" duration="30"/>
    </trip>
    <trip id="42_bus_中山幹線:1" type="pt_bus" depart="166" departLane="best" from="515156277#0" to="266052141">
        <stop busStop="2702176993" duration="30"/>
        <stop busStop="2702175895" duration="30"/>
        <stop busStop="2702173288" duration="30"/>
        <stop busStop="2509549130" duration="30"/>
    </trip>
    <trip id="43_bus_280:0" type="pt_bus" depart="173" departLane="best" from="50893520#0" to="263056100#3">
        <stop busStop="2517658893" duration="30"/>
        <stop busStop="2517658841" duration="30"/>
        <stop busStop="2517658931" duration="30"/>
        <stop busStop="2517658824" duration="30"/>
        <stop busStop="2703510764" duration="30"/>
        <stop busStop="2703511529" duration="30"/>
        <stop busStop="2686831915" duration="30"/>
        <stop busStop="2506289799" duration="30"/>
    </trip>
    <trip id="44_bus_280:1" type="pt_bus" depart="179" departLane="best" from="265736010#0" to="382754769">
        <stop busStop="2685395657" duration="30"/>
        <stop busStop="2685395656" duration="30"/>
        <stop busStop="2703511530" duration="30"/>
        <stop busStop="2703510765" duration="30"/>
        <stop busStop="2517659483" duration="30"/>
        <stop busStop="2517658825" duration="30"/>
        <stop busStop="2517658936" duration="30"/>
        <stop busStop="2517658844" duration="30"/>
        <stop busStop="2517658838" duration="30"/>
    </trip>
    <trip id="45_bus_685:0" type="pt_bus" depart="188" departLane="best" from="50893489" to="264859962#4">
        <stop busStop="2460552126" duration="30"/>
        <stop busStop="2460552127" duration="30"/>
        <stop busStop="2460552082" duration="30"/>
        <stop busStop="2686831915" duration="30"/>
        <stop busStop="2183271156" duration="30"/>
        <stop busStop="2506289802" duration="30"/>
        <stop busStop="2506289804" duration="30"/>
        <stop busStop="2506754602" duration="30"/>
    </trip>
    <trip id="46_bus_685:1" type="pt_bus" depart="189" departLane="best" from="401376480#0" to="260152355">
        <stop busStop="1166189365" duration="30"/>
        <stop busStop="1483501124" duration="30"/>
        <stop busStop="1483501761" duration="30"/>
        <stop busStop="2506289803" duration="30"/>
        <stop busStop="2685395656" duration="30"/>
        <stop busStop="2459652479" duration="30"/>
        <stop busStop="2459652521" duration="30"/>
        <stop busStop="2459652514" duration="30"/>
    </trip>
    <trip id="47_bus_616:0" type="pt_bus" depart="194" departLane="best" from="50893520#0" to="265725163#1">
        <stop busStop="2517658893" duration="30"/>
        <stop busStop="2517658841" duration="30"/>
        <stop busStop="2517658931" duration="30"/>
        <stop busStop="2517658824" duration="30"/>
    </trip>
    <trip id="48_bus_616:1" type="pt_bus" depart="201" departLane="best" from="299291335#0" to="382754769">
        <stop busStop="2713414521" duration="30"/>
        <stop busStop="2517659483" duration="30"/>
        <stop busStop="2517658825" duration="30"/>
        <stop busStop="2517658936" duration="30"/>
        <stop busStop="2517658844" duration="30"/>
        <stop busStop="2517658838" duration="30"/>
    </trip>
    <trip id="49_bus_612:0" type="pt_bus" depart="204" departLane="best" from="265736010#0" to="266052141">
        <stop busStop="2685395657" duration="30"/>
        <stop busStop="2685395656" duration="30"/>
        <stop busStop="3132488960" duration="30"/>
        <stop busStop="2702175895" duration="30"/>
        <stop busStop="2702173288" duration="30"/>
        <stop busStop="2509549130" duration="30"/>
    </trip>
    <trip id="50_bus_612:1" type="pt_bus" depart="218" departLane="best" from="50893489" to="263056100#3">
        <stop busStop="2460552126" duration="30"/>
        <stop busStop="2460552127" duration="30"/>
        <stop busStop="2460552082" duration="30"/>
        <stop busStop="2686831915" duration="30"/>
        <stop busStop="2506289799" duration="30"/>
    </trip>
    <trip id="51_bus_5201:0" type="pt_bus" depart="222" departLane="best" from="49164288" to="263056100#3">
        <stop busStop="3064960375" duration="30"/>
    </trip>
    <trip id="52_bus_203:0" type="pt_bus" depart="227" departLane="best" from="50893489" to="263056100#3">
        <stop busStop="2460552126" duration="30"/>
        <stop busStop="2460552127" duration="30"/>
        <stop busStop="2460552082" duration="30"/>
        <stop busStop="2686831915" duration="30"/>
        <stop busStop="2506289799" duration="30"/>
    </trip>
    <trip id="53_bus_41:0" type="pt_bus" depart="227" departLane="best" from="265736010#0" to="382754769">
        <stop busStop="2685395657" duration="30"/>
        <stop busStop="2685395656" duration="30"/>
        <stop busStop="2703511530" duration="30"/>
        <stop busStop="2703510765" duration="30"/>
        <stop busStop="3188479010" duration="30"/>
    </trip>
    <trip id="54_bus_247:0" type="pt_bus" depart="228" departLane="best" from="241536929#0" to="278492469#4">
        <stop busStop="2509549129" duration="30"/>
        <stop busStop="2702173283" duration="30"/>
        <stop busStop="2702175363" duration="30"/>
        <stop busStop="2702176992" duration="30"/>
    </trip>
    <trip id="55_bus_9025:0" type="pt_bus" depart="237" departLane="best" from="49164288" to="263056100#3">
        <stop busStop="2506289848" duration="30"/>
    </trip>
    <trip id="56_bus_9025:1" type="pt_bus" depart="239" departLane="best" from="49164288" to="263056100#3">
        <stop busStop="2506289848" duration="30"/>
    </trip>
    <trip id="57_bus_306:0" type="pt_bus" depart="253" departLane="best" from="368617667#0" to="265725163#1">
        <stop busStop="2517658931" duration="30"/>
        <stop busStop="2517658824" duration="30"/>
        <stop busStop="2517658856" duration="30"/>
    </trip>
    <trip id="58_bus_306:1" type="pt_bus" depart="253" departLane="best" from="368617667#0" to="265725163#1">
        <stop busStop="2517658931" duration="30"/>
        <stop busStop="2517658824" duration="30"/>
        <stop busStop="2517658856" duration="30"/>
    </trip>
    <trip id="59_bus_41:1" type="pt_bus" depart="260" departLane="best" from="50893520#0" to="263056100#3">
        <stop busStop="2517658893" duration="30"/>
    </trip>
    <trip id="60_subway_O:0" type="pt_subway" depart="272" departLane="best" from="198281393" to="194618356">
        <stop busStop="3812564391" duration="30"/>
        <stop busStop="3495094873" duration="30"/>
    </trip>
    <trip id="61_subway_O:1" type="pt_subway" depart="275" departLane="best" from="198281393" to="194618356">
        <stop busStop="3812564391" duration="30"/>
        <stop busStop="3495094873" duration="30"/>
    </trip>
    <trip id="62_subway_O:2" type="pt_subway" depart="300" departLane="best" from="198281393" to="198281393">
        <stop busStop="3495094873@4250354" duration="30"/>
        <stop busStop="3812564391" duration="30"/>
    </trip>
    <trip id="63_subway_O:3" type="pt_subway" depart="303" departLane="best" from="198281393" to="198281393">
        <stop busStop="3495094873@4250354" duration="30"/>
        <stop busStop="3812564391" duration="30"/>
    </trip>
    <trip id="64_subway_BR:0" type="pt_subway" depart="305" departLane="best" from="195696237" to="195696237">
        <stop busStop="3497302607" duration="30"/>
    </trip>
    <trip id="65_bus_紅57:0" type="pt_bus" depart="317" departLane="best" from="260789406#0" to="263056100#3">
        <stop busStop="2657578306" duration="30"/>
        <stop busStop="2657578312" duration="30"/>
        <stop busStop="2657578309" duration="30"/>
        <stop busStop="2506289799" duration="30"/>
    </trip>
    <trip id="66_bus_紅57:1" type="pt_bus" depart="318" departLane="best" from="265736010#0" to="-260789406#0">
        <stop busStop="2685395657" duration="30"/>
        <stop busStop="-2657578308" duration="30"/>
        <stop busStop="-2657578311" duration="30"/>
        <stop busStop="-2657578307" duration="30"/>
    </trip>
    <trip id="67_bus_298:0" type="pt_bus" depart="321" departLane="best" from="316964704#0" to="312879610#1">
        <stop busStop="1483501762" duration="30"/>
        <stop busStop="2506289800" duration="30"/>
    </trip>
    <trip id="68_bus_298:1" type="pt_bus" depart="322" departLane="best" from="668037871#0" to="310620430#4">
        <stop busStop="3419306362" duration="30"/>
        <stop busStop="3419306361" duration="30"/>
    </trip>
    <trip id="69_bus_復興幹線:1" type="pt_bus" depart="323" departLane="best" from="401376480#0" to="312879610#1">
        <stop busStop="1166189365" duration="30"/>
        <stop busStop="1483501124" duration="30"/>
        <stop busStop="1483501761" duration="30"/>
        <stop busStop="2506289803" duration="30"/>
        <stop busStop="1483501762" duration="30"/>
        <stop busStop="2506289800" duration="30"/>
        <stop busStop="4066659498@3500859" duration="30"/>
    </trip>
    <trip id="70_bus_280直:0" type="pt_bus" depart="326" departLane="best" from="50893489" to="263056100#3">
        <stop busStop="2460552126" duration="30"/>
        <stop busStop="2460552127" duration="30"/>
        <stop busStop="2460552082" duration="30"/>
        <stop busStop="2686831915" duration="30"/>
        <stop busStop="2506289799" duration="30"/>
    </trip>
    <trip id="71_bus_280直:1" type="pt_bus" depart="331" departLane="best" from="265736010#0" to="260152355">
        <stop busStop="2685395657" duration="30"/>
        <stop busStop="2685395656" duration="30"/>
        <stop busStop="2459652479" duration="30"/>
        <stop busStop="2459652521" duration="30"/>
        <stop busStop="2459652514" duration="30"/>
    </trip>
    <trip id="72_subway_BR:1" type="pt_subway" depart="334" departLane="best" from="195696213" to="195696237">
        <stop busStop="3497302607" duration="30"/>
    </trip>
    <trip id="73_bus_9023:0" type="pt_bus" depart="336" departLane="best" from="306977115#0" to="382754769">
        <stop busStop="2517658844" duration="30"/>
    </trip>
    <trip id="74_bus_9023:1" type="pt_bus" depart="346" departLane="best" from="50893520#6" to="299804823#2">
        <stop busStop="2517658893" duration="30"/>
        <stop busStop="2517658841" duration="30"/>
    </trip>
    <trip id="75_bus_1717:0" type="pt_bus" depart="350" departLane="best" from="515156277#0" to="266052141">
        <stop busStop="2702176993" duration="30"/>
        <stop busStop="2702175895" duration="30"/>
        <stop busStop="2702173288" duration="30"/>
        <stop busStop="2509549130" duration="30"/>
    </trip>
    <trip id="76_bus_1717:1" type="pt_bus" depart="353" departLane="best" from="241536929#0" to="278492469#4">
        <stop busStop="2509549129" duration="30"/>
        <stop busStop="2702173283" duration="30"/>
        <stop busStop="2702175363" duration="30"/>
        <stop busStop="2702176992" duration="30"/>
    </trip>
    <trip id="77_bus_承德幹線:0" type="pt_bus" depart="362" departLane="best" from="50893520#0" to="732390620#2">
        <stop busStop="2517658893" duration="30"/>
        <stop busStop="2517658841" duration="30"/>
        <stop busStop="2517658931" duration="30"/>
        <stop busStop="2517658824" duration="30"/>
        <stop busStop="2517658856" duration="30"/>
        <stop busStop="2517658859" duration="30"/>
    </trip>
    <trip id="78_bus_承德幹線:1" type="pt_bus" depart="365" departLane="best" from="312109408#0" to="382754769">
        <stop busStop="2517659483" duration="30"/>
        <stop busStop="2517658825" duration="30"/>
        <stop busStop="2517658936" duration="30"/>
        <stop busStop="2517658844" duration="30"/>
        <stop busStop="2517658838" duration="30"/>
    </trip>
    <trip id="79_bus_676:0" type="pt_bus" depart="365" departLane="best" from="265736010#0" to="506597810#3">
        <stop busStop="2685395657" duration="30"/>
        <stop busStop="1483501762" duration="30"/>
        <stop busStop="2506289800" duration="30"/>
        <stop busStop="3419306362" duration="30"/>
        <stop busStop="3419306361" duration="30"/>
        <stop busStop="2506289803" duration="30"/>
    </trip>
    <trip id="80_bus_676:1" type="pt_bus" depart="371" departLane="best" from="263056100#1" to="263056100#3">
        <stop busStop="2506289799" duration="30"/>
    </trip>
    <trip id="81_bus_松江新生:0" type="pt_bus" depart="376" departLane="best" from="265736010#0" to="198589897#5">
        <stop busStop="1483501762" duration="30"/>
        <stop busStop="2506289800" duration="30"/>
        <stop busStop="2506289838" duration="30"/>
        <stop busStop="2506289805" duration="30"/>
        <stop busStop="2506289795" duration="30"/>
        <stop busStop="2506289798" duration="30"/>
    </trip>
    <trip id="82_bus_72:0" type="pt_bus" depart="381" departLane="best" from="265736010#0" to="45265806">
        <stop busStop="1483501762" duration="30"/>
        <stop busStop="2506289800" duration="30"/>
    </trip>
    <trip id="83_bus_5:0" type="pt_bus" depart="383" departLane="best" from="198589912#0" to="263056100#3">
        <stop busStop="2506289804@5311165" duration="30"/>
        <stop busStop="1483501761" duration="30"/>
        <stop busStop="2506289803" duration="30"/>
    </trip>
    <trip id="84_bus_5:1" type="pt_bus" depart="383" departLane="best" from="401376480#0" to="401376480#4">
        <stop busStop="1166189365" duration="30"/>
    </trip>
    <trip id="85_subway_R:1" type="pt_subway" depart="383" departLane="best" from="265151055" to="194618339">
        <stop busStop="3495094874" duration="30"/>
        <stop busStop="3495094873" duration="30"/>
    </trip>
    <trip id="86_bus_5116:0" type="pt_bus" depart="384" departLane="best" from="49164288" to="264859962#4">
        <stop busStop="2506289848" duration="30"/>
        <stop busStop="2506289802" duration="30"/>
        <stop busStop="2506289804" duration="30"/>
        <stop busStop="2506754602" duration="30"/>
    </trip>
    <trip id="87_bus_5116:1" type="pt_bus" depart="388" departLane="best" from="260789418#0" to="291325256">
        <stop busStop="2657578315" duration="30"/>
        <stop busStop="2657578313" duration="30"/>
        <stop busStop="1483501124" duration="30"/>