<?xml version="1.0" encoding="UTF-8"?>

<!-- generated on 11/19/20 12:14:30 by Eclipse SUMO polyconvert Version 1.7.0
<configuration xmlns:xsi="http://www.w3.org/2001/XMLSchema-instance" xsi:noNamespaceSchemaLocation="http://sumo.dlr.de/xsd/polyconvertConfiguration.xsd">

    <input>
        <net-file value="osm.net.xml"/>
        <osm-files value="osm_bbox.osm.xml"/>
        <osm.keep-full-type value="true"/>
        <type-file value="D:\SUMO\data\typemap\osmPolyconvert.typ.xml"/>
    </input>

    <output>
        <output-file value="osm.poly.xml"/>
    </output>

    <processing>
        <poi-layer-offset value="5"/>
    </processing>

    <report>
        <verbose value="true"/>
    </report>

</configuration>
-->

<additional xmlns:xsi="http://www.w3.org/2001/XMLSchema-instance" xsi:noNamespaceSchemaLocation="http://sumo.dlr.de/xsd/additional_file.xsd">
    <location netOffset="-351888.89,-2771061.94" convBoundary="-1792.00,-1.10,7233.34,2260.60" origBoundary="121.513905,25.048170,121.603288,25.068950" projParameter="+proj=utm +zone=51 +ellps=WGS84 +datum=WGS84 +units=m +no_defs"/>

    <poly id="103535923" type="building.office" color="255,230,230" fill="1" layer="-1.00" shape="1954.478727,938.270498 1945.373033,938.755724 1891.373582,897.332242 1869.434001,880.886172 1800.448672,880.651037 1802.673109,993.995234 1916.765175,990.180293 1943.676323,963.086820 1954.588301,962.626547 1954.478727,938.270498"/>
    <poly id="155814555" type="building.retail" color="255,230,230" fill="1" layer="-1.00" shape="1602.447516,454.768214 1687.515131,451.872479 1689.772407,451.604575 1691.792768,450.885077 1693.476040,449.781519 1694.645615,448.761008 1695.929483,447.107910 1697.136670,444.890733 1697.987777,442.400464 1698.416820,440.069795 1698.587938,437.210220 1698.429810,434.697550 1698.147419,432.828651 1697.728419,431.393201 1697.166750,429.826363 1696.474520,428.316309 1695.374579,426.422952 1694.290311,425.050022 1693.219340,423.976015 1692.020066,423.169221 1690.579730,422.464703 1688.627835,422.042586 1600.474045,425.082201 1601.365381,453.594645 1601.613339,454.134732 1601.981054,454.551691 1602.447516,454.768214"/>
    <poly id="155814555#1" type="shop.mall" color="237,199,255" fill="1" layer="-1.00" shape="1602.447516,454.768214 1687.515131,451.872479 1689.772407,451.604575 1691.792768,450.885077 1693.476040,449.781519 1694.645615,448.761008 1695.929483,447.107910 1697.136670,444.890733 1697.987777,442.400464 1698.416820,440.069795 1698.587938,437.210220 1698.429810,434.697550 1698.147419,432.828651 1697.728419,431.393201 1697.166750,429.826363 1696.474520,428.316309 1695.374579,426.422952 1694.290311,425.050022 1693.219340,423.976015 1692.020066,423.169221 1690.579730,422.464703 1688.627835,422.042586 1600.474045,425.082201 1601.365381,453.594645 1601.613339,454.134732 1601.981054,454.551691 1602.447516,454.768214"/>
    <poly id="155814556" type="building.commercial" color="255,230,230" fill="1" layer="-1.00" shape="1607.643602,454.745658 1608.432694,481.254351 1609.469202,511.072266 1609.685930,517.162020 1610.047897,527.381753 1609.694910,527.396620 1609.746871,532.236497 1610.364140,536.162031 1611.193491,539.165938 1612.623904,542.706142 1614.711629,546.383283 1616.800049,549.185373 1619.820078,552.298680 1622.313810,554.321064 1625.057144,556.097085 1628.485678,557.788216 1632.060787,559.034713 1636.065548,559.888922 1639.125758,560.166215 1641.789298,560.148702 1645.306455,559.756501 1648.577442,558.990343 1651.181148,558.098429 1654.263287,556.658632 1656.179178,555.607954 1658.112988,554.346630 1659.801934,552.833174 1662.028303,550.627208 1664.000553,548.246745 1665.856878,548.226823 1667.780496,547.896036 1669.429104,547.324518 1671.024297,546.476661 1672.595628,545.285688 1673.822636,543.976569 1674.805969,542.526071 1675.654108,540.700422 1676.243254,538.246192 1676.277045,535.753615 1675.818865,533.487847 1675.093281,531.690163 1674.035838,529.995729 1674.322707,529.460978 1700.475196,528.471456 1701.119331,528.320551 1701.600619,528.038474 1701.957041,527.403289 1702.053175,526.959197 1701.468031,508.157568 1701.383043,507.759726 1701.126903,507.396949 1700.718481,506.947194 1700.192084,506.786695 1686.351859,507.079192 1699.464330,483.157239 1700.738666,478.735117 1700.952657,477.990695 1700.432230,461.459056 1700.242908,460.741115 1699.711161,460.082229 1698.959481,459.614005 1698.191189,459.478253 1687.821935,459.777812 1684.916601,459.831139 1680.710527,459.964884 1679.905207,460.139673 1679.061552,460.503174 1678.471661,461.007947 1678.096488,461.776252 1677.977218,462.885183 1678.401486,476.094902 1671.573405,476.356475 1658.975970,476.812886 1658.759203,474.478069 1658.059126,472.237052 1657.060308,470.364765 1655.379717,467.957046 1653.159798,466.064636 1650.773005,464.606000 1648.412809,463.745211 1645.886095,463.351423 1643.082125,463.447978 1640.585456,463.973218 1637.994912,465.152981 1635.640928,466.751112 1634.063543,468.318755 1633.068693,469.636462 1631.970594,471.675250 1631.206613,473.821217 1627.211575,473.875178 1626.626909,454.187421 1607.643602,454.745658"/>
    <poly id="155814556#1" type="tourism.hotel" color="207,245,201" fill="1" layer="-2.00" shape="1607.643602,454.745658 1608.432694,481.254351 1609.469202,511.072266 1609.685930,517.162020 1610.047897,527.381753 1609.694910,527.396620 1609.746871,532.236497 1610.364140,536.162031 1611.193491,539.165938 1612.623904,542.706142 1614.711629,546.383283 1616.800049,549.185373 1619.820078,552.298680 1622.313810,554.321064 1625.057144,556.097085 1628.485678,557.788216 1632.060787,559.034713 1636.065548,559.888922 1639.125758,560.166215 1641.789298,560.148702 1645.306455,559.756501 1648.577442,558.990343 1651.181148,558.098429 1654.263287,556.658632 1656.179178,555.607954 1658.112988,554.346630 1659.801934,552.833174 1662.028303,550.627208 1664.000553,548.246745 1665.856878,548.226823 1667.780496,547.896036 1669.429104,547.324518 1671.024297,546.476661 1672.595628,545.285688 1673.822636,543.976569 1674.805969,542.526071 1675.654108,540.700422 1676.243254,538.246192 1676.277045,535.753615 1675.818865,533.487847 1675.093281,531.690163 1674.035838,529.995729 1674.322707,529.460978 1700.475196,528.471456 1701.119331,528.320551 1701.600619,528.038474 1701.957041,527.403289 1702.053175,526.959197 1701.468031,508.157568 1701.383043,507.759726 1701.126903,507.396949 1700.718481,506.947194 1700.192084,506.786695 1686.351859,507.079192 1699.464330,483.157239 1700.738666,478.735117 1700.952657,477.990695 1700.432230,461.459056 1700.242908,460.741115 1699.711161,460.082229 1698.959481,459.614005 1698.191189,459.478253 1687.821935,459.777812 1684.916601,459.831139 1680.710527,459.964884 1679.905207,460.139673 1679.061552,460.503174 1678.471661,461.007947 1678.096488,461.776252 1677.977218,462.885183 1678.401486,476.094902 1671.573405,476.356475 1658.975970,476.812886 1658.759203,474.478069 1658.059126,472.237052 1657.060308,470.364765 1655.379717,467.957046 1653.159798,466.064636 1650.773005,464.606000 1648.412809,463.745211 1645.886095,463.351423 1643.082125,463.447978 1640.585456,463.973218 1637.994912,465.152981 1635.640928,466.751112 1634.063543,468.318755 1633.068693,469.636462 1631.970594,471.675250 1631.206613,473.821217 1627.211575,473.875178 1626.626909,454.187421 1607.643602,454.745658"/>
    <poly id="155814783" type="building.commercial" color="255,230,230" fill="1" layer="-1.00" shape="1265.356527,518.027487 1284.951879,518.093545 1285.379670,532.532733 1315.362201,531.157889 1305.372243,517.940301 1283.750658,488.975205 1282.318409,489.023846 1282.280118,487.340626 1277.684353,481.264757 1268.755776,481.360833 1264.490257,487.221910 1265.356527,518.027487"/>
    <poly id="155814783#1" type="shop.mall" color="237,199,255" fill="1" layer="-1.00" shape="1265.356527,518.027487 1284.951879,518.093545 1285.379670,532.532733 1315.362201,531.157889 1305.372243,517.940301 1283.750658,488.975205 1282.318409,489.023846 1282.280118,487.340626 1277.684353,481.264757 1268.755776,481.360833 1264.490257,487.221910 1265.356527,518.027487"/>
    <poly id="155815990" type="leisure.park" color="207,245,201" fill="1" layer="-2.00" shape="1506.656897,637.285697 1514.716668,637.099416 1509.797209,531.382613 1449.024528,532.212875 1429.947400,535.297821 1506.656897,637.285697"/>
    <poly id="185642749" type="amenity.school" color="237,199,199" fill="1" layer="-1.00" shape="1417.033547,387.110971 1412.117098,238.561263 1579.270427,232.955200 1586.214695,381.649233 1518.211368,383.841661 1417.033547,387.110971"/>
    <poly id="209148503" type="building.commercial" color="255,230,230" fill="1" layer="-1.00" shape="1449.405095,647.415664 1445.566374,642.295266 1460.641464,631.112102 1464.388193,636.122728 1467.951668,633.470373 1480.460803,650.161176 1458.328575,666.570747 1445.911533,650.000814 1449.405095,647.415664"/>
    <poly id="236271553" type="building.commercial" color="255,230,230" fill="1" layer="-1.00" shape="1399.922101,680.966727 1380.019588,655.128750 1391.328428,646.511453 1388.371243,642.677544 1394.035817,638.374327 1409.691761,658.697565 1405.878826,661.607378 1413.072356,670.945083 1399.922101,680.966727"/>
    <poly id="236271553#1" type="tourism.hotel" color="207,245,201" fill="1" layer="-2.00" shape="1399.922101,680.966727 1380.019588,655.128750 1391.328428,646.511453 1388.371243,642.677544 1394.035817,638.374327 1409.691761,658.697565 1405.878826,661.607378 1413.072356,670.945083 1399.922101,680.966727"/>
    <poly id="243495721" type="leisure.park" color="207,245,201" fill="1" layer="-2.00" shape="2564.614157,1051.684054 2764.594840,1064.704655 2766.996689,1028.769176 2769.433719,992.345962 2568.963941,977.081923 2564.614157,1051.684054"/>
    <poly id="244001544" type="building.stadium" color="255,230,230" fill="1" layer="-1.00" shape="1798.966522,328.381428 1784.740914,341.681758 1793.936548,350.488667 1804.586027,357.496679 1816.323778,362.488186 1828.784590,365.278805 1841.543785,365.784479 1854.177519,363.998674 1866.292690,359.958834 1877.467233,353.824549 1887.349939,345.776807 1895.600639,336.085083 1934.873769,335.398522 1933.317137,248.475812 1912.081232,248.825129 1905.840026,237.006914 1897.464219,226.551826 1887.270839,217.855226 1875.616323,211.223440 1862.916813,206.884619 1849.618008,205.000138 1836.205019,205.642334 1823.141706,208.784084 1810.911161,214.309442 1799.945077,222.014403 1790.634315,231.651089 1783.307773,242.839370 1778.233931,255.210839 1775.579428,268.309571 1775.460218,281.658031 1777.861336,294.802242 1782.717135,307.266620 1789.830932,318.588063 1798.966522,328.381428"/>
    <poly id="244001544#1" type="leisure.stadium" color="207,245,201" fill="1" layer="-2.00" shape="1798.966522,328.381428 1784.740914,341.681758 1793.936548,350.488667 1804.586027,357.496679 1816.323778,362.488186 1828.784590,365.278805 1841.543785,365.784479 1854.177519,363.998674 1866.292690,359.958834 1877.467233,353.824549 1887.349939,345.776807 1895.600639,336.085083 1934.873769,335.398522 1933.317137,248.475812 1912.081232,248.825129 1905.840026,237.006914 1897.464219,226.551826 1887.270839,217.855226 1875.616323,211.223440 1862.916813,206.884619 1849.618008,205.000138 1836.205019,205.642334 1823.141706,208.784084 1810.911161,214.309442 1799.945077,222.014403 1790.634315,231.651089 1783.307773,242.839370 1778.233931,255.210839 1775.579428,268.309571 1775.460218,281.658031 1777.861336,294.802242 1782.717135,307.266620 1789.830932,318.588063 1798.966522,328.381428"/>
    <poly id="247678969" type="building.commercial" color="255,230,230" fill="1" layer="-1.00" shape="1275.774074,444.389403 1276.434096,443.839551 1274.356750,441.137079 1276.531721,436.971055 1279.708984,436.870409 1279.739806,435.983955 1319.601411,434.680065 1319.587667,435.278346 1320.434770,435.236004 1320.685498,445.412632 1319.797445,445.400032 1319.883629,448.722062 1319.257885,448.706640 1319.287951,449.625668 1311.703311,449.906635 1310.072613,453.080987 1313.045075,454.577571 1310.981551,458.786695 1313.954249,460.305430 1311.454920,465.272446 1310.089320,464.013337 1309.620508,464.516824 1311.564425,467.010283 1310.854078,467.571751 1311.518547,468.373189 1300.969792,476.373158 1300.355290,475.526877 1299.634259,476.033078 1275.774074,444.389403"/>
    <poly id="247678969#1" type="tourism.hotel" color="207,245,201" fill="1" layer="-2.00" shape="1275.774074,444.389403 1276.434096,443.839551 1274.356750,441.137079 1276.531721,436.971055 1279.708984,436.870409 1279.739806,435.983955 1319.601411,434.680065 1319.587667,435.278346 1320.434770,435.236004 1320.685498,445.412632 1319.797445,445.400032 1319.883629,448.722062 1319.257885,448.706640 1319.287951,449.625668 1311.703311,449.906635 1310.072613,453.080987 1313.045075,454.577571 1310.981551,458.786695 1313.954249,460.305430 1311.454920,465.272446 1310.089320,464.013337 1309.620508,464.516824 1311.564425,467.010283 1310.854078,467.571751 1311.518547,468.373189 1300.969792,476.373158 1300.355290,475.526877 1299.634259,476.033078 1275.774074,444.389403"/>
    <poly id="247678970" type="building.commercial" color="255,230,230" fill="1" layer="-1.00" shape="1335.632006,429.766884 1381.633941,428.984191 1382.108760,457.190984 1336.117009,457.973572 1335.632006,429.766884"/>
    <poly id="247678974" type="building.commercial" color="255,230,230" fill="1" layer="-1.00" shape="1655.986813,572.468465 1655.403570,572.651949 1654.983291,572.977679 1654.593279,573.303083 1654.347124,573.870627 1654.994697,595.662247 1654.716968,596.108289 1654.834244,596.694085 1655.142373,597.200297 1655.479103,597.551131 1655.895117,597.768197 1656.440976,597.862027 1675.395361,597.448150 1676.008631,597.242192 1676.448017,596.816569 1676.675421,596.382145 1676.676569,593.668388 1681.417896,593.584278 1682.040186,593.278535 1682.288719,592.932496 1682.586031,592.430863 1682.618780,591.721615 1682.461151,591.136251 1682.031840,590.620262 1681.503187,590.249334 1680.675795,590.247136 1680.681487,589.837245 1685.160153,589.722725 1686.477612,589.320910 1687.259657,588.858382 1688.019030,588.163490 1688.605706,587.359686 1688.988944,586.402994 1689.110234,585.482342 1688.929539,573.344428 1688.742832,572.870142 1688.486455,572.485215 1687.987711,572.080736 1687.400784,571.920887 1655.986813,572.468465"/>
    <poly id="247678976" type="building.commercial" color="255,230,230" fill="1" layer="-1.00" shape="1442.828713,428.891246 1491.269749,427.861177 1491.007305,431.607859 1486.843837,431.951659 1487.430696,467.788959 1463.314945,468.657305 1463.109558,458.934330 1458.831908,458.980301 1458.809056,456.853855 1456.567200,456.678571 1456.526970,452.935140 1454.185296,452.860617 1453.994067,444.455596 1456.537518,444.527950 1456.491813,440.275059 1447.432060,440.372426 1447.355999,433.295348 1443.089501,433.440892 1442.828713,428.891246"/>
    <poly id="247678977" type="building.commercial" color="255,230,230" fill="1" layer="-1.00" shape="1656.236853,650.289339 1657.841479,689.804182 1697.144466,688.230435 1695.539835,648.704517 1656.236853,650.289339"/>
    <poly id="247678983" type="building.commercial" color="255,230,230" fill="1" layer="-1.00" shape="1496.840843,425.176187 1504.135536,425.142122 1504.292953,439.794660 1502.462408,441.276426 1502.904317,442.024882 1502.709017,444.508119 1502.682846,446.768009 1502.332168,448.876315 1504.735732,450.955030 1505.097131,459.236380 1499.560762,459.517391 1489.615014,447.584077 1489.526956,439.388402 1496.840843,425.176187"/>
    <poly id="247678986" type="building.commercial" color="255,230,230" fill="1" layer="-1.00" shape="1388.471543,428.666989 1403.362049,428.451515 1419.644811,428.221091 1419.866767,457.316720 1404.390071,457.438791 1388.573885,436.308688 1388.471543,428.666989"/>
    <poly id="251815199" type="amenity.hospital" color="237,199,199" fill="0" layer="-1.00" shape="2752.066264,811.142869 2761.919146,635.476049 2624.665083,626.681977 2522.314965,620.119789 2501.309625,642.962073 2453.111626,717.711005 2450.256171,727.156489 2439.699526,788.322712 2508.638706,796.503426"/>
    <poly id="251815199#1" type="landuse.military" color="153,153,92" fill="0" layer="-3.00" shape="2752.066264,811.142869 2761.919146,635.476049 2624.665083,626.681977 2522.314965,620.119789 2501.309625,642.962073 2453.111626,717.711005 2450.256171,727.156489 2439.699526,788.322712 2508.638706,796.503426"/>
    <poly id="251815200" type="building.commercial" color="255,230,230" fill="1" layer="-1.00" shape="1789.774956,418.764528 1794.737584,418.611629 1794.721676,418.069051 1806.674310,417.697218 1806.689267,418.151194 1815.141912,417.894427 1815.126124,417.362924 1826.987959,416.992082 1827.002796,417.434983 1831.834270,417.283504 1831.926619,420.251015 1832.269639,420.247338 1832.810441,437.753486 1831.327743,437.802609 1831.375580,439.441418 1831.869813,439.425043 1831.900556,440.410522 1826.948025,440.563300 1827.008089,442.401355 1827.461966,442.385413 1827.492828,443.381967 1822.570565,443.534421 1822.632291,445.527529 1818.295059,445.662638 1818.343491,447.356823 1803.183361,447.829496 1799.814416,447.932075 1797.333048,448.002986 1797.286632,446.497080 1792.949401,446.632196 1792.876394,444.528443 1787.933953,444.681127 1787.903919,443.762099 1788.256908,443.747238 1788.196483,441.875957 1783.486083,442.026154 1783.406068,439.268963 1778.836792,439.406572 1778.557215,430.271456 1783.096228,430.134172 1782.926584,424.664200 1782.543328,424.679386 1782.511275,423.572079 1789.914918,423.348698 1789.774956,418.764528"/>
    <poly id="254453759" type="building.commercial" color="255,230,230" fill="1" layer="-1.00" shape="1628.676151,331.138649 1628.714731,338.493035 1626.020881,338.510874 1626.051466,343.240215 1629.047981,343.219127 1629.238254,378.805903 1655.460720,378.668453 1655.304908,349.106930 1646.123559,349.161160 1646.030103,331.052075 1628.676151,331.138649"/>
    <poly id="254453761" type="building.commercial" color="255,230,230" fill="1" layer="-1.00" shape="1697.475511,304.370562 1698.692574,303.072630 1699.685780,301.599876 1700.435308,299.985742 1700.931663,298.285712 1701.155023,296.533228 1701.105745,294.761517 1700.784305,293.014878 1700.191176,291.337612 1699.347132,289.784881 1698.272468,288.367541 1696.997927,287.129570 1696.871804,281.016694 1671.089753,281.780688 1671.083692,281.215852 1658.617589,281.704072 1658.824202,287.793933 1652.137271,288.053995 1652.747983,306.412287 1659.293779,306.164816 1659.491968,312.409838 1671.968726,311.976885 1671.981773,311.312154 1697.743948,310.581601 1697.475511,304.370562"/>
    <poly id="254453762" type="building.commercial" color="255,230,230" fill="1" layer="-1.00" shape="1692.643617,322.355262 1692.809499,337.816282 1695.726848,337.940053 1696.499622,364.825514 1696.383116,369.013683 1694.958008,371.609798 1693.267036,374.817974 1691.451898,376.797991 1686.451894,379.111246 1679.671024,380.956245 1668.339467,380.911693 1668.378236,369.480323 1664.815087,369.352412 1663.476075,349.883207 1663.029163,339.265634 1665.242113,333.925164 1668.913094,329.056415 1672.125718,326.607263 1675.504876,324.632615 1678.887600,322.990224 1681.631528,321.997126 1684.712086,322.285291 1692.643617,322.355262"/>
    <poly id="254453763" type="landuse.construction" color="194,194,130" fill="1" layer="-3.00" shape="1612.228224,226.697596 1701.102464,223.916241 1701.935397,272.400233 1666.006365,273.505705 1665.558310,257.139439 1663.309163,255.347028 1634.403650,256.532284 1631.804892,251.309913 1613.205990,251.985841 1612.228224,226.697596"/>
    <poly id="254453764" type="building.office" color="255,230,230" fill="1" layer="-1.00" shape="1599.466701,363.208558 1599.643631,379.688504 1628.847999,379.109158 1628.670985,362.618138 1599.466701,363.208558"/>
    <poly id="254453764#1" type="landuse.military" color="153,153,92" fill="1" layer="-3.00" shape="1599.466701,363.208558 1599.643631,379.688504 1628.847999,379.109158 1628.670985,362.618138 1599.466701,363.208558"/>
    <poly id="257637116" type="building.commercial" color="255,230,230" fill="1" layer="-1.00" shape="1261.303133,240.737055 1259.655734,242.360878 1259.862686,249.403320 1256.433155,249.506683 1257.575089,287.176731 1262.275578,287.037539 1262.322172,288.554521 1261.374051,288.586877 1261.544855,294.145454 1263.155470,295.667760 1280.272801,295.151286 1281.737522,293.429742 1281.690931,291.912760 1283.173646,291.863578 1283.064535,288.287035 1295.259549,287.923228 1295.213674,286.472697 1296.827545,286.422106 1298.073411,284.990908 1297.311335,260.110160 1295.905239,258.840410 1281.965168,259.256219 1281.466565,242.923712 1280.024201,242.972459 1279.988533,241.532895 1278.470978,240.220040 1261.303133,240.737055"/>
    <poly id="257637117" type="building.commercial" color="255,230,230" fill="1" layer="-1.00" shape="1260.153345,349.554129 1261.747746,349.570202 1262.065227,349.068342 1282.814370,348.501710 1283.049632,354.425119 1285.450905,354.410360 1285.587740,359.625931 1296.652021,359.207828 1296.859707,370.071664 1302.176898,370.047691 1302.201442,372.329191 1308.243363,372.142352 1309.001181,394.752461 1283.724241,395.556073 1283.407195,383.906980 1278.272360,379.310088 1272.859283,374.173442 1260.876689,374.579293 1260.153345,349.554129"/>
    <poly id="257637128" type="building.commercial" color="255,230,230" fill="1" layer="-1.00" shape="1279.285558,318.743827 1259.283306,319.335654 1259.930183,341.005453 1279.932403,340.413625 1279.285558,318.743827"/>
    <poly id="257924458" type="leisure.park" color="207,245,201" fill="1" layer="-2.00" shape="2345.536723,335.325770 2333.771406,316.399911 2329.838656,302.452336 2319.883094,256.480560 2313.794718,218.320695 2349.561561,218.082636 2348.920700,307.343686 2347.813881,334.083036 2345.536723,335.325770"/>
    <poly id="257924714" type="leisure.park" color="207,245,201" fill="1" layer="-2.00" shape="2068.174946,615.579964 2068.442376,571.747433 2136.908714,572.377244 2136.722165,614.359122 2068.174946,615.579964"/>
    <poly id="264430374" type="leisure.park" color="207,245,201" fill="0" layer="-2.00" shape="2766.587738,731.813648 2770.147491,690.903603 2888.325559,699.171062 2885.164756,739.678058"/>
    <poly id="265914323" type="building.commercial" color="255,230,230" fill="1" layer="-1.00" shape="1540.815869,424.504420 1542.074333,453.367373 1564.100655,452.421917 1562.852327,423.558856 1540.815869,424.504420"/>
    <poly id="265918974" type="building.commercial" color="255,230,230" fill="1" layer="-1.00" shape="1519.025350,425.801827 1529.925892,425.175215 1531.678396,454.941136 1520.777997,455.578822 1519.025350,425.801827"/>
    <poly id="277527665" type="amenity.school" color="237,199,199" fill="1" layer="-1.00" shape="2406.534497,999.927409 2558.244331,1010.702607 2565.657989,907.412963 2420.001342,894.800741 2406.534497,999.927409"/>
    <poly id="277600926" type="amenity.university" color="237,199,199" fill="1" layer="-1.00" shape="2357.156708,302.858362 2399.368579,302.407592 2399.551412,268.500568 2357.339437,268.951332 2357.156708,302.858362"/>
    <poly id="278136691" type="leisure.park" color="207,245,201" fill="1" layer="-2.00" shape="2182.917458,249.592760 2207.525674,248.509992 2206.440439,185.695813 2180.171525,184.348432 2182.917458,249.592760"/>
    <poly id="278136694" type="leisure.track" color="207,245,201" fill="1" layer="-2.00" shape="1432.146804,247.085345 1429.432309,248.000641 1426.913671,249.301511 1424.436817,250.734850 1422.074752,252.521405 1419.999345,254.692557 1418.330354,257.125177 1417.073700,259.431524 1416.152482,261.966872 1415.575360,264.598210 1417.585555,320.191793 1417.991672,322.303043 1418.823070,324.553716 1420.582557,327.724840 1422.330972,329.865967 1424.349406,331.782662 1426.769847,333.551041 1429.214960,334.798559 1432.073121,335.986256 1435.292577,336.992845 1438.670003,337.676519 1441.669854,337.965497 1444.706609,337.932860 1448.244357,337.573620 1451.434798,336.819359 1454.632352,335.788110 1457.423852,334.528618 1459.511154,333.464995 1461.194543,332.372483 1461.657852,346.379296 1470.564786,346.139590 1466.646385,237.831230 1458.004906,238.367148 1458.543279,249.969550 1456.543497,248.850158 1454.373988,247.898739 1451.678782,246.853280 1448.320203,246.047558 1444.268462,245.526199 1441.352278,245.513233 1438.337941,245.756082 1435.204561,246.188513 1432.146804,247.085345"/>
    <poly id="278136694#1" type="sport.running" color="79,230,125" fill="1" layer="-2.00" shape="1432.146804,247.085345 1429.432309,248.000641 1426.913671,249.301511 1424.436817,250.734850 1422.074752,252.521405 1419.999345,254.692557 1418.330354,257.125177 1417.073700,259.431524 1416.152482,261.966872 1415.575360,264.598210 1417.585555,320.191793 1417.991672,322.303043 1418.823070,324.553716 1420.582557,327.724840 1422.330972,329.865967 1424.349406,331.782662 1426.769847,333.551041 1429.214960,334.798559 1432.073121,335.986256 1435.292577,336.992845 1438.670003,337.676519 1441.669854,337.965497 1444.706609,337.932860 1448.244357,337.573620 1451.434798,336.819359 1454.632352,335.788110 1457.423852,334.528618 1459.511154,333.464995 1461.194543,332.372483 1461.657852,346.379296 1470.564786,346.139590 1466.646385,237.831230 1458.004906,238.367148 1458.543279,249.969550 1456.543497,248.850158 1454.373988,247.898739 1451.678782,246.853280 1448.320203,246.047558 1444.268462,245.526199 1441.352278,245.513233 1438.337941,245.756082 1435.204561,246.188513 1432.146804,247.085345"/>
    <poly id="278136696" type="building.yes" color="255,230,230" fill="1" layer="-1.00" shape="1419.351868,384.073238 1419.821669,384.599860 1420.391288,385.025722 1420.978703,385.229861 1456.745562,384.081163 1459.631577,380.350592 1463.059728,382.938886 1464.423811,381.240597 1466.133982,378.885075 1467.300427,376.635084 1468.151737,374.166950 1468.851952,371.722592 1469.139001,369.326980 1469.222606,366.778483 1469.194546,365.106231 1468.985125,363.458081 1468.694279,361.744346 1468.169247,359.833751 1467.607668,358.277997 1466.914576,356.690426 1466.316330,355.478438 1465.525681,354.202058 1462.160858,349.995911 1459.011188,352.665969 1458.032183,351.701756 1455.523777,349.258650 1425.898811,350.141950 1425.908602,348.236683 1419.734922,348.369503 1419.062658,348.720101 1418.582915,349.146166 1418.194687,349.637706 1418.031391,350.403741 1419.143305,383.444118 1419.351868,384.073238"/>
    <poly id="279063281" type="leisure.park" color="207,245,201" fill="1" layer="-2.00" shape="2669.206410,1125.013564 2670.937110,1092.397069 2673.650167,1060.124551 2663.896478,1059.442104 2644.289511,1058.200133 2642.132627,1091.530072 2640.037805,1123.109269 2669.206410,1125.013564"/>
    <poly id="279063282" type="leisure.park" color="207,245,201" fill="1" layer="-2.00" shape="2653.771566,982.302769 2656.905738,949.782079 2660.238734,915.088285 2685.437663,917.478020 2678.970492,984.703561 2653.771566,982.302769"/>
    <poly id="281591851" type="landuse.construction" color="194,194,130" fill="0" layer="-3.00" shape="1775.422845,489.885571 1774.286132,454.452954 1833.182692,451.772343 1833.531219,471.108174 1867.535610,470.289574 1868.414679,600.329321 1838.548511,600.306070"/>
    <poly id="281751123" type="building.school" color="255,230,230" fill="1" layer="-1.00" shape="1531.297977,332.162078 1564.572536,330.996134 1564.147593,329.948429 1564.052848,328.642418 1564.362848,327.442826 1565.047445,326.361053 1565.927537,325.631629 1567.072557,325.143044 1568.514436,325.050025 1569.820065,325.423683 1569.862700,326.575182 1570.316582,326.559232 1569.616940,306.507185 1569.102525,306.523785 1569.124268,307.609050 1567.938416,308.053768 1566.617245,308.112261 1565.230189,307.673018 1564.008460,306.656022 1563.350044,305.477906 1563.132329,303.995991 1563.529086,302.418866 1530.021580,303.509775 1530.150022,304.195139 1530.067192,304.938155 1529.801572,305.572369 1529.223553,306.243168 1528.551879,306.649137 1527.696106,306.824477 1526.867626,306.722610 1526.259199,306.441156 1526.945530,328.066212 1529.948026,324.843926 1530.830139,324.302779 1532.028695,324.101605 1533.060141,324.312057 1533.923645,324.856608 1534.526741,325.581180 1534.890439,326.563083 1534.928795,327.315874 1534.677071,328.304387 1534.330145,328.884092 1531.297977,332.162078"/>
    <poly id="281751123#1" type="landuse.grass" color="194,194,130" fill="1" layer="-3.00" shape="1531.297977,332.162078 1564.572536,330.996134 1564.147593,329.948429 1564.052848,328.642418 1564.362848,327.442826 1565.047445,326.361053 1565.927537,325.631629 1567.072557,325.143044 1568.514436,325.050025 1569.820065,325.423683 1569.862700,326.575182 1570.316582,326.559232 1569.616940,306.507185 1569.102525,306.523785 1569.124268,307.609050 1567.938416,308.053768 1566.617245,308.112261 1565.230189,307.673018 1564.008460,306.656022 1563.350044,305.477906 1563.132329,303.995991 1563.529086,302.418866 1530.021580,303.509775 1530.150022,304.195139 1530.067192,304.938155 1529.801572,305.572369 1529.223553,306.243168 1528.551879,306.649137 1527.696106,306.824477 1526.867626,306.722610 1526.259199,306.441156 1526.945530,328.066212 1529.948026,324.843926 1530.830139,324.302779 1532.028695,324.101605 1533.060141,324.312057 1533.923645,324.856608 1534.526741,325.581180 1534.890439,326.563083 1534.928795,327.315874 1534.677071,328.304387 1534.330145,328.884092 1531.297977,332.162078"/>