<?xml version="1.0" encoding="UTF-8"?>

<!-- generated on 11/19/20 12:14:31 by Eclipse SUMO duarouter Version 1.7.0
<configuration xmlns:xsi="http://www.w3.org/2001/XMLSchema-instance" xsi:noNamespaceSchemaLocation="http://sumo.dlr.de/xsd/duarouterConfiguration.xsd">

    <input>
        <net-file value="D:\github\sumo-learning\2020-11-19-12-14-22\osm.net.xml"/>
        <route-files value="D:\github\sumo-learning\2020-11-19-12-14-22\osm.passenger.trips.xml"/>
    </input>

    <output>
        <output-file value="D:\github\sumo-learning\2020-11-19-12-14-22\osm.passenger.trips.xml.tmp"/>
        <write-trips value="true"/>
    </output>

    <time>
        <begin value="0"/>
        <end value="3600"/>
    </time>

    <report>
        <no-warnings value="true"/>
        <ignore-errors value="true"/>
        <no-step-log value="true"/>
    </report>

</configuration>
-->

<routes xmlns:xsi="http://www.w3.org/2001/XMLSchema-instance" xsi:noNamespaceSchemaLocation="http://sumo.dlr.de/xsd/routes_file.xsd">
    <vType id="veh_passenger" vClass="passenger"/>
    <trip id="veh0" type="veh_passenger" depart="0.00" departLane="best" from="377740852" to="-257922302"/>
    <trip id="veh1" type="veh_passenger" depart="6.61" departLane="best" from="506316037#4" to="452108520"/>
    <trip id="veh2" type="veh_passenger" depart="13.21" departLane="best" from="313675767#5" to="-30337330"/>
    <trip id="veh3" type="veh_passenger" depart="19.82" departLane="best" from="-557563419#9" to="374332380#6"/>
    <trip id="veh4" type="veh_passenger" depart="26.43" departLane="best" from="377740862#2" to="374332385#7"/>
    <trip id="veh5" type="veh_passenger" depart="33.03" departLane="best" from="-557566168#6" to="374427264#0"/>
    <trip id="veh6" type="veh_passenger" depart="39.64" departLane="best" from="51268652#1" to="-103533006#2"/>
    <trip id="veh7" type="veh_passenger" depart="46.25" departLane="best" from="51268650#5" to="472093921#5"/>
    <trip id="veh8" type="veh_passenger" depart="52.85" departLane="best" from="238710698#5" to="-51268678#7"/>
    <trip id="veh9" type="veh_passenger" depart="59.46" departLane="best" from="-49710859#2" to="-452116335#1"/>
    <trip id="veh11" type="veh_passenger" depart="72.67" departLane="best" from="51268650#6" to="49710859#1"/>
    <trip id="veh12" type="veh_passenger" depart="79.28" departLane="best" from="374332380#3" to="51420575#2"/>
    <trip id="veh14" type="veh_passenger" depart="92.49" departLane="best" from="51268679#3" to="374332391#0"/>
    <trip id="veh15" type="veh_passenger" depart="99.10" departLane="best" from="494997374" to="-374332364#1"/>
    <trip id="veh16" type="veh_passenger" depart="105.71" departLane="best" departSpeed="max" from="-776507972#1" to="144500729#5"/>
    <trip id="veh17" type="veh_passenger" depart="112.31" departLane="best" from="-452116335#0" to="-557563419#8"/>
    <trip id="veh18" type="veh_passenger" depart="118.92" departLane="best" from="-504465240#1" to="144500729#0"/>
    <trip id="veh19" type="veh_passenger" depart="125.53" departLane="best" from="374427273#1" to="238710698#4"/>
    <trip id="veh20" type="veh_passenger" depart="132.14" departLane="best" departSpeed="max" from="291325260#0" to="-51420502#0"/>
    <trip id="veh21" type="veh_passenger" depart="138.74" departLane="best" from="144500729#5" to="51268706#3"/>
    <trip id="veh22" type="veh_passenger" depart="145.35" departLane="best" from="377740862#0" to="374427267#2"/>
    <trip id="veh23" type="veh_passenger" depart="151.96" departLane="best" from="-51268701#4" to="49710859#1"/>
    <trip id="veh24" type="veh_passenger" depart="158.56" departLane="best" from="-51268695#4" to="264589677"/>
    <trip id="veh25" type="veh_passenger" depart="165.17" departLane="best" from="767884495" to="377740853"/>
    <trip id="veh27" type="veh_passenger" depart="178.38" departLane="best" from="51268676#7" to="506359668#4"/>
    <trip id="veh28" type="veh_passenger" depart="184.99" departLane="best" departSpeed="max" from="-776507972#1" to="-327528737#0"/>
    <trip id="veh29" type="veh_passenger" depart="191.60" departLane="best" from="232361464#2" to="103533006#0"/>
    <trip id="veh30" type="veh_passenger" depart="198.20" departLane="best" from="-557563419#12" to="51268711#2"/>
    <trip id="veh31" type="veh_passenger" depart="204.81" departLane="best" from="51268689#5" to="189615566"/>
    <trip id="veh33" type="veh_passenger" depart="218.02" departLane="best" from="51268702#4" to="374332375#0"/>
    <trip id="veh34" type="veh_passenger" depart="224.63" departLane="best" from="144500729#5" to="-763092089"/>
    <trip id="veh36" type="veh_passenger" depart="237.84" departLane="best" from="374332387#5" to="51268695#1"/>
    <trip id="veh37" type="veh_passenger" depart="244.45" departLane="best" departSpeed="max" from="310849377#0" to="-557563419#10"/>
    <trip id="veh39" type="veh_passenger" depart="257.66" departLane="best" from="-49710854#1" to="-374332365#0"/>
    <trip id="veh40" type="veh_passenger" depart="264.27" departLane="best" departSpeed="max" from="-504465240#3" to="374427273#0"/>
    <trip id="veh41" type="veh_passenger" depart="270.88" departLane="best" from="50914252#3" to="329022964#6"/>
    <trip id="veh44" type="veh_passenger" depart="290.70" departLane="best" from="557563419#14" to="51268678#12"/>
    <trip id="veh45" type="veh_passenger" depart="297.30" departLane="best" from="-103533006#7" to="49710854#1"/>
    <trip id="veh47" type="veh_passenger" depart="310.52" departLane="best" from="144500729#5" to="377740856"/>
    <trip id="veh48" type="veh_passenger" depart="317.12" departLane="best" departSpeed="max" from="-504465240#3" to="374332365#1"/>
    <trip id="veh50" type="veh_passenger" depart="330.34" departLane="best" from="374332377#0" to="-51268695#4"/>
    <trip id="veh52" type="veh_passenger" depart="343.55" departLane="best" from="374427266" to="-51268678#23"/>
    <trip id="veh53" type="veh_passenger" depart="350.16" departLane="best" from="506359672#1" to="374332385#5"/>
    <trip id="veh54" type="veh_passenger" depart="356.76" departLane="best" from="506389480#1" to="374332385#1"/>
    <trip id="veh55" type="veh_passenger" depart="363.37" departLane="best" from="-103532303#0" to="232359746"/>
    <trip id="veh56" type="veh_passenger" depart="369.98" departLane="best" from="51268689#7" to="51268670#10"/>
    <trip id="veh57" type="veh_passenger" depart="376.59" departLane="best" departSpeed="max" from="232361463#0" to="-374332365#2"/>
    <trip id="veh58" type="veh_passenger" depart="383.19" departLane="best" from="51268689#7" to="51268713#0"/>
    <trip id="veh60" type="veh_passenger" depart="396.41" departLane="best" from="-377740862#2" to="506316037#5"/>
    <trip id="veh61" type="veh_passenger" depart="403.01" departLane="best" from="506359672#3" to="-51268653"/>
    <trip id="veh62" type="veh_passenger" depart="409.62" departLane="best" from="374332370" to="374332385#7"/>
    <trip id="veh63" type="veh_passenger" depart="416.23" departLane="best" from="144500729#5" to="51268679#3"/>
    <trip id="veh64" type="veh_passenger" depart="422.83" departLane="best" from="313675767#6" to="-51420502#2"/>
    <trip id="veh65" type="veh_passenger" depart="429.44" departLane="best" from="374332380#4" to="49710859#1"/>
    <trip id="veh66" type="veh_passenger" depart="436.05" departLane="best" from="-51420502#2" to="155804118#1"/>
    <trip id="veh68" type="veh_passenger" depart="449.26" departLane="best" from="-51268650#4" to="-557563419#3"/>
    <trip id="veh69" type="veh_passenger" depart="455.87" departLane="best" from="238710698#2" to="374427264#0"/>
    <trip id="veh70" type="veh_passenger" depart="462.47" departLane="best" departSpeed="max" from="-776507972#1" to="-557563419#11"/>
    <trip id="veh71" type="veh_passenger" depart="469.08" departLane="best" from="-377740862#4" to="374427273#1"/>
    <trip id="veh72" type="veh_passenger" depart="475.69" departLane="best" departSpeed="max" from="-776507972#1" to="51268696#2"/>
    <trip id="veh73" type="veh_passenger" depart="482.29" departLane="best" from="51268679#1" to="-374427262#0"/>
    <trip id="veh74" type="veh_passenger" depart="488.90" departLane="best" from="103532303#0" to="451928560#0"/>
    <trip id="veh75" type="veh_passenger" depart="495.51" departLane="best" from="-557563419#5" to="-51268658"/>
    <trip id="veh76" type="veh_passenger" depart="502.11" departLane="best" from="374332369#3" to="506359672#2"/>
    <trip id="veh77" type="veh_passenger" depart="508.72" departLane="best" from="51268650#6" to="-51268702#10"/>
    <trip id="veh78" type="veh_passenger" depart="515.33" departLane="best" departSpeed="max" from="-49710859#3" to="374332364#0"/>
    <trip id="veh79" type="veh_passenger" depart="521.93" departLane="best" from="313675767#6" to="374332375#3"/>
    <trip id="veh80" type="veh_passenger" depart="528.54" departLane="best" departSpeed="max" from="506316037#0" to="451928562"/>
    <trip id="veh81" type="veh_passenger" depart="535.15" departLane="best" from="557566168#7" to="-452116335#3"/>
    <trip id="veh82" type="veh_passenger" depart="541.75" departLane="best" departSpeed="max" from="310849377#0" to="232361464#8"/>
    <trip id="veh83" type="veh_passenger" depart="548.36" departLane="best" from="51268679#3" to="-763092089"/>
    <trip id="veh84" type="veh_passenger" depart="554.97" departLane="best" departSpeed="max" from="-51268711#2" to="374332371#1"/>
    <trip id="veh85" type="veh_passenger" depart="561.57" departLane="best" from="313675767#5" to="144500729#0"/>
    <trip id="veh86" type="veh_passenger" depart="568.18" departLane="best" from="103534039#2" to="51268702#2"/>
    <trip id="veh87" type="veh_passenger" depart="574.79" departLane="best" from="336062767" to="51268678#12"/>
    <trip id="veh89" type="veh_passenger" depart="588.00" departLane="best" from="557563419#12" to="51268702#5"/>
    <trip id="veh90" type="veh_passenger" depart="594.61" departLane="best" from="51268678#10" to="-51268681#3"/>
    <trip id="veh91" type="veh_passenger" depart="601.21" departLane="best" from="374332375#0" to="-51420546#2"/>
    <trip id="veh92" type="veh_passenger" depart="607.82" departLane="best" departSpeed="max" from="310849377#0" to="-374332367#0"/>
    <trip id="veh93" type="veh_passenger" depart="614.43" departLane="best" departSpeed="max" from="291325260#0" to="557563419#8"/>
    <trip id="veh94" type="veh_passenger" depart="621.04" departLane="best" from="144500729#5" to="506359672#2"/>
    <trip id="veh95" type="veh_passenger" depart="627.64" departLane="best" departSpeed="max" from="374332365#0" to="336062767"/>
    <trip id="veh96" type="veh_passenger" depart="634.25" departLane="best" from="51420575#2" to="776507972#1"/>
    <trip id="veh97" type="veh_passenger" depart="640.86" departLane="best" from="374332384#0" to="494997377#2"/>
    <trip id="veh98" type="veh_passenger" depart="647.46" departLane="best" from="-51268690#3" to="144500729#7"/>
    <trip id="veh99" type="veh_passenger" depart="654.07" departLane="best" from="557563419#12" to="374427262#0"/>
    <trip id="veh100" type="veh_passenger" depart="660.68" departLane="best" from="374332380#6" to="504465240#2"/>
    <trip id="veh101" type="veh_passenger" depart="667.28" departLane="best" from="374332377#1" to="51268676#0"/>
    <trip id="veh102" type="veh_passenger" depart="673.89" departLane="best" from="-51268690#5" to="51420501#4"/>
    <trip id="veh103" type="veh_passenger" depart="680.50" departLane="best" from="-452116335#0" to="-51268701#3"/>
    <trip id="veh105" type="veh_passenger" depart="693.71" departLane="best" departSpeed="max" from="-835854015" to="-51268650#1"/>
    <trip id="veh106" type="veh_passenger" depart="700.32" departLane="best" from="51268695#5" to="-763092065#1"/>
    <trip id="veh107" type="veh_passenger" depart="706.92" departLane="best" departSpeed="max" from="313675767#0" to="374427263#0"/>
    <trip id="veh108" type="veh_passenger" depart="713.53" departLane="best" from="374332378#1" to="51268706#1"/>
    <trip id="veh109" type="veh_passenger" depart="720.14" departLane="best" from="-51420546#3" to="494997377#0"/>
    <trip id="veh111" type="veh_passenger" depart="733.35" departLane="best" from="452116335#4" to="144500731#2"/>
    <trip id="veh113" type="veh_passenger" depart="746.56" departLane="best" from="-378661993#1" to="374332375#0"/>
    <trip id="veh114" type="veh_passenger" depart="753.17" departLane="best" from="-378661993#1" to="-51420546#2"/>
    <trip id="veh115" type="veh_passenger" depart="759.78" departLane="best" from="144500729#5" to="51268704#1"/>
    <trip id="veh116" type="veh_passenger" depart="766.38" departLane="best" departSpeed="max" from="291325260#0" to="-51268678#7"/>
    <trip id="veh117" type="veh_passenger" depart="772.99" departLane="best" from="51268675#4" to="472093921#5"/>
    <trip id="veh118" type="veh_passenger" depart="779.60" departLane="best" from="374427267#0" to="557566168#5"/>
    <trip id="veh119" type="veh_passenger" depart="786.20" departLane="best" from="378661993#1" to="-103533006#3"/>
    <trip id="veh120" type="veh_passenger" depart="792.81" departLane="best" departSpeed="max" from="51268658" to="144500731#1"/>
    <trip id="veh121" type="veh_passenger" depart="799.42" departLane="best" from="451928560#0" to="51268711#1"/>
    <trip id="veh122" type="veh_passenger" depart="806.02" departLane="best" from="-51268678#10" to="-506389482#3"/>
    <trip id="veh123" type="veh_passenger" depart="812.63" departLane="best" departSpeed="max" from="-504465240#3" to="374332385#7"/>
    <trip id="veh125" type="veh_passenger" depart="825.84" departLane="best" from="504465240#0" to="-51268708#3"/>
    <trip id="veh126" type="veh_passenger" depart="832.45" departLane="best" from="374427273#0" to="103532303#1"/>
    <trip id="veh128" type="veh_passenger" depart="845.67" departLane="best" from="313675767#6" to="103534039#3"/>
    <trip id="veh129" type="veh_passenger" depart="852.27" departLane="best" from="-103532303#3" to="506359668#1"/>
    <trip id="veh130" type="veh_passenger" depart="858.88" departLane="best" from="506316037#7" to="374332385#7"/>
    <trip id="veh131" type="veh_passenger" depart="865.49" departLane="best" from="-378661993#3" to="51268689#0"/>
    <trip id="veh132" type="veh_passenger" depart="872.09" departLane="best" from="51268701#1" to="374332385#7"/>
    <trip id="veh133" type="veh_passenger" depart="878.70" departLane="best" from="51268675#5" to="374427263#0"/>
    <trip id="veh134" type="veh_passenger" depart="885.31" departLane="best" from="-51268680#0" to="-51268650#6"/>
    <trip id="veh135" type="veh_passenger" depart="891.91" departLane="best" from="232361463#1" to="51268695#3"/>
    <trip id="veh136" type="veh_passenger" depart="898.52" departLane="best" from="50914252#7" to="51268678#12"/>
    <trip id="veh138" type="veh_passenger" depart="911.73" departLane="best" from="103534039#2" to="-494997377#0"/>
    <trip id="veh139" type="veh_passenger" depart="918.34" departLane="best" from="506389480#3" to="51268689#10"/>
    <trip id="veh141" type="veh_passenger" depart="931.55" departLane="best" from="-51268690#0" to="51268702#8"/>
    <trip id="veh142" type="veh_passenger" depart="938.16" departLane="best" from="51268681#0" to="51420576"/>
    <trip id="veh143" type="veh_passenger" depart="944.77" departLane="best" from="51268652#3" to="51268686#0"/>
    <trip id="veh144" type="veh_passenger" depart="951.37" departLane="best" from="-30337330" to="504465240#0"/>
    <trip id="veh145" type="veh_passenger" depart="957.98" departLane="best" from="238710697#7" to="51268702#8"/>
    <trip id="veh146" type="veh_passenger" depart="964.59" departLane="best" from="51268652#3" to="103533006#0"/>
    <trip id="veh147" type="veh_passenger" depart="971.19" departLane="best" from="506389482#5" to="-49710859#2"/>
    <trip id="veh148" type="veh_passenger" depart="977.80" departLane="best" from="51268686#1" to="51268678#10"/>
    <trip id="veh149" type="veh_passenger" depart="984.41" departLane="best" from="-557566168#8" to="50914252#7"/>
    <trip id="veh150" type="veh_passenger" depart="991.01" departLane="best" from="50914252#7" to="-557563419#3"/>
    <trip id="veh151" type="veh_passenger" depart="997.62" departLane="best" from="-264484756" to="-51268702#2"/>
    <trip id="veh152" type="veh_passenger" depart="1004.23" departLane="best" from="238710697#1" to="51268678#15"/>
    <trip id="veh153" type="veh_passenger" depart="1010.83" departLane="best" from="377740856" to="311138395"/>
    <trip id="veh154" type="veh_passenger" depart="1017.44" departLane="best" departSpeed="max" from="557566168#0" to="374332385#2"/>
    <trip id="veh155" type="veh_passenger" depart="1024.05" departLane="best" from="51268714#1" to="-506389482#3"/>
    <trip id="veh156" type="veh_passenger" depart="1030.65" departLane="best" from="557563419#13" to="-51268695#4"/>
    <trip id="veh157" type="veh_passenger" depart="1037.26" departLane="best" departSpeed="max" from="557563419#0" to="103532303#2"/>
    <trip id="veh158" type="veh_passenger" depart="1043.87" departLane="best" departSpeed="max" from="-504465240#3" to="374332365#1"/>
    <trip id="veh159" type="veh_passenger" depart="1050.47" departLane="best" departSpeed="max" from="506316037#0" to="155811045#1"/>
    <trip id="veh161" type="veh_passenger" depart="1063.69" departLane="best" from="291325260#2" to="374332391#0"/>
    <trip id="veh162" type="veh_passenger" depart="1070.29" departLane="best" from="144500729#0" to="494989314#3"/>
    <trip id="veh163" type="veh_passenger" depart="1076.90" departLane="best" from="-103532303#1" to="51268702#4"/>
    <trip id="veh164" type="veh_passenger" depart="1083.51" departLane="best" from="374332380#4" to="49710852#1"/>
    <trip id="veh165" type="veh_passenger" depart="1090.12" departLane="best" from="506316037#7" to="451928562"/>
    <trip id="veh166" type="veh_passenger" depart="1096.72" departLane="best" departSpeed="max" from="291325260#0" to="-374332379#1"/>
    <trip id="veh167" type="veh_passenger" depart="1103.33" departLane="best" from="451928560#1" to="232361463#4"/>
    <trip id="veh168" type="veh_passenger" depart="1109.94" departLane="best" from="232361464#10" to="51268675#3"/>
    <trip id="veh169" type="veh_passenger" depart="1116.54" departLane="best" from="504465240#1" to="144500731#2"/>
    <trip id="veh170" type="veh_passenger" depart="1123.15" departLane="best" from="232361463#3" to="329022964#0"/>
    <trip id="veh171" type="veh_passenger" depart="1129.76" departLane="best" departSpeed="max" from="310849377#0" to="144500729#7"/>
    <trip id="veh172" type="veh_passenger" depart="1136.36" departLane="best" from="-51268675#1" to="329022964#6"/>
    <trip id="veh173" type="veh_passenger" depart="1142.97" departLane="best" from="51268714#2" to="452116335#0"/>
    <trip id="veh175" type="veh_passenger" depart="1156.18" departLane="best" from="232359756" to="374332385#7"/>
    <trip id="veh176" type="veh_passenger" depart="1162.79" departLane="best" from="329022964#0" to="374427262#0"/>
    <trip id="veh177" type="veh_passenger" depart="1169.40" departLane="best" from="378661993#1" to="374332375#2"/>
    <trip id="veh178" type="veh_passenger" depart="1176.00" departLane="best" from="329022964#6" to="-51420546#2"/>
    <trip id="veh179" type="veh_passenger" depart="1182.61" departLane="best" from="374332369#3" to="51268695#5"/>
    <trip id="veh180" type="veh_passenger" depart="1189.22" departLane="best" from="50914252#7" to="-51268690#0"/>
    <trip id="veh182" type="veh_passenger" depart="1202.43" departLane="best" from="374427273#0" to="232361464#2"/>
    <trip id="veh184" type="veh_passenger" depart="1215.64" departLane="best" departSpeed="max" from="463487171#0" to="-557563419#3"/>
    <trip id="veh185" type="veh_passenger" depart="1222.25" departLane="best" from="-51420502#0" to="-257922302"/>
    <trip id="veh186" type="veh_passenger" depart="1228.86" departLane="best" from="103533006#3" to="374332377#0"/>
    <trip id="veh187" type="veh_passenger" depart="1235.46" departLane="best" from="51268678#11" to="-374427263#1"/>
    <trip id="veh188" type="veh_passenger" depart="1242.07" departLane="best" from="311138395" to="374427273#1"/>
    <trip id="veh189" type="veh_passenger" depart="1248.68" departLane="best" from="374332375#3" to="-763092061"/>
    <trip id="veh190" type="veh_passenger" depart="1255.28" departLane="best" from="378661993#3" to="-103533006#1"/>
    <trip id="veh191" type="veh_passenger" depart="1261.89" departLane="best" departSpeed="max" from="-504465240#3" to="374332362#4"/>
    <trip id="veh192" type="veh_passenger" depart="1268.50" departLane="best" from="-51268702#10" to="51420501#0"/>
    <trip id="veh193" type="veh_passenger" depart="1275.10" departLane="best" from="103533006#7" to="51268675#4"/>
    <trip id="veh194" type="veh_passenger" depart="1281.71" departLane="best" departSpeed="max" from="374332365#0" to="506389480#3"/>
    <trip id="veh195" type="veh_passenger" depart="1288.32" departLane="best" from="452116335#0" to="557566168#6"/>
    <trip id="veh196" type="veh_passenger" depart="1294.92" departLane="best" from="374427262#0" to="51268713#3"/>
    <trip id="veh197" type="veh_passenger" depart="1301.53" departLane="best" from="51268695#6" to="374427267#2"/>
    <trip id="veh198" type="veh_passenger" depart="1308.14" departLane="best" from="504465240#1" to="374332380#4"/>
    <trip id="veh199" type="veh_passenger" depart="1314.74" departLane="best" from="51268675#1" to="374332385#7"/>
    <trip id="veh200" type="veh_passenger" depart="1321.35" departLane="best" from="51268696#4" to="504465240#2"/>
    <trip id="veh201" type="veh_passenger" depart="1327.96" departLane="best" from="103533006#5" to="375408688#0"/>
    <trip id="veh203" type="veh_passenger" depart="1341.17" departLane="best" from="374427270" to="103533006#7"/>
    <trip id="veh204" type="veh_passenger" depart="1347.78" departLane="best" from="-451928554" to="144500729#4"/>
    <trip id="veh205" type="veh_passenger" depart="1354.39" departLane="best" from="144500729#7" to="189615573#2"/>
    <trip id="veh206" type="veh_passenger" depart="1360.99" departLane="best" from="374332380#4" to="-51268675#2"/>
    <trip id="veh207" type="veh_passenger" depart="1367.60" departLane="best" departSpeed="max" from="-776507972#1" to="472093921#4"/>
    <trip id="veh208" type="veh_passenger" depart="1374.21" departLane="best" from="494997377#0" to="-374332369#3"/>
    <trip id="veh209" type="veh_passenger" depart="1380.81" departLane="best" departSpeed="max" from="310849377#0" to="374332385#6"/>
    <trip id="veh210" type="veh_passenger" depart="1387.42" departLane="best" from="311138395" to="-51420501#2"/>
    <trip id="veh211" type="veh_passenger" depart="1394.03" departLane="best" departSpeed="max" from="313675767#0" to="51268696#1"/>
    <trip id="veh212" type="veh_passenger" depart="1400.63" departLane="best" from="374332387#3" to="472093921#5"/>
    <trip id="veh213" type="veh_passenger" depart="1407.24" departLane="best" from="51268678#22" to="506359662#2"/>
    <trip id="veh214" type="veh_passenger" depart="1413.85" departLane="best" from="291325260#1" to="-103533006#1"/>
    <trip id="veh217" type="veh_passenger" depart="1433.67" departLane="best" departSpeed="max" from="313675767#0" to="504465240#2"/>
    <trip id="veh219" type="veh_passenger" depart="1446.88" departLane="best" from="-557566168#6" to="-557563419#10"/>
    <trip id="veh220" type="veh_passenger" depart="1453.49" departLane="best" from="238710698#10" to="452116335#1"/>
    <trip id="veh221" type="veh_passenger" depart="1460.09" departLane="best" departSpeed="max" from="310849377#0" to="-51268681#1"/>
    <trip id="veh222" type="veh_passenger" depart="1466.70" departLane="best" from="374332367#0" to="-51268650#6"/>
    <trip id="veh223" type="veh_passenger" depart="1473.31" departLane="best" from="374427268#2" to="-257922302"/>
    <trip id="veh224" type="veh_passenger" depart="1479.91" departLane="best" from="291325260#6" to="374332385#7"/>
    <trip id="veh225" type="veh_passenger" depart="1486.52" departLane="best" from="-327528737#0" to="377740859#0"/>
    <trip id="veh226" type="veh_passenger" depart="1493.13" departLane="best" from="-51268678#12" to="374332375#1"/>
    <trip id="veh227" type="veh_passenger" depart="1499.73" departLane="best" from="-374332369#3" to="264589677"/>
    <trip id="veh228" type="veh_passenger" depart="1506.34" departLane="best" from="-557563419#12" to="232359756"/>
    <trip id="veh229" type="veh_passenger" depart="1512.95" departLane="best" from="506359672#1" to="264589677"/>
    <trip id="veh230" type="veh_passenger" depart="1519.55" departLane="best" from="506359668#1" to="51268670#10"/>
    <trip id="veh231" type="veh_passenger" depart="1526.16" departLane="best" from="144500729#0" to="-377740862#5"/>
    <trip id="veh232" type="veh_passenger" depart="1532.77" departLane="best" from="-190680558#1" to="374332385#5"/>
    <trip id="veh234" type="veh_passenger" depart="1545.98" departLane="best" from="377740862#2" to="506359672#1"/>
    <trip id="veh236" type="veh_passenger" depart="1559.19" departLane="best" from="51420546#1" to="-51268702#7"/>
    <trip id="veh237" type="veh_passenger" depart="1565.80" departLane="best" from="-232359756" to="-51268678#22"/>
    <trip id="veh238" type="veh_passenger" depart="1572.41" departLane="best" from="-51268660#2" to="451928560#1"/>
    <trip id="veh240" type="veh_passenger" depart="1585.62" departLane="best" departSpeed="max" from="49184204#0" to="506359662#3"/>
    <trip id="veh241" type="veh_passenger" depart="1592.23" departLane="best" from="-51268701#0" to="374427267#0"/>
    <trip id="veh242" type="veh_passenger" depart="1598.84" departLane="best" from="506359662#3" to="-506389482#2"/>
    <trip id="veh243" type="veh_passenger" depart="1605.44" departLane="best" from="51268660#2" to="51420546#1"/>
    <trip id="veh244" type="veh_passenger" depart="1612.05" departLane="best" departSpeed="max" from="-504465240#3" to="-257922302"/>
    <trip id="veh245" type="veh_passenger" depart="1618.66" departLane="best" from="232361463#7" to="452116335#0"/>
    <trip id="veh246" type="veh_passenger" depart="1625.26" departLane="best" from="51420575#2" to="30337330"/>
    <trip id="veh247" type="veh_passenger" depart="1631.87" departLane="best" departSpeed="max" from="49184201#0" to="374427272"/>
    <trip id="veh248" type="veh_passenger" depart="1638.48" departLane="best" from="51268678#11" to="374427265#3"/>
    <trip id="veh249" type="veh_passenger" depart="1645.08" departLane="best" from="506389480#4" to="232361466#3"/>
    <trip id="veh250" type="veh_passenger" depart="1651.69" departLane="best" from="329022964#0" to="238710698#9"/>
    <trip id="veh251" type="veh_passenger" depart="1658.30" departLane="best" from="374332377#2" to="232361466#2"/>
    <trip id="veh252" type="veh_passenger" depart="1664.90" departLane="best" from="51268678#11" to="51268650#6"/>
    <trip id="veh253" type="veh_passenger" depart="1671.51" departLane="best" departSpeed="max" from="-504465240#3" to="51420501#4"/>
    <trip id="veh254" type="veh_passenger" depart="1678.12" departLane="best" from="374427273#1" to="51268660#1"/>
    <trip id="veh255" type="veh_passenger" depart="1684.72" departLane="best" from="494997377#1" to="374332367#0"/>
    <trip id="veh256" type="veh_passenger" depart="1691.33" departLane="best" from="506316037#2" to="51420546#2"/>
    <trip id="veh257" type="veh_passenger" depart="1697.94" departLane="best" from="144500729#7" to="506389482#5"/>
    <trip id="veh258" type="veh_passenger" depart="1704.54" departLane="best" from="329022964#3" to="49710859#2"/>
    <trip id="veh259" type="veh_passenger" depart="1711.15" departLane="best" from="144500729#7" to="51268675#7"/>
    <trip id="veh260" type="veh_passenger" depart="1717.76" departLane="best" from="51268675#1" to="-442655084#1"/>
    <trip id="veh261" type="veh_passenger" depart="1724.36" departLane="best" from="51268690#3" to="-763092061"/>
    <trip id="veh262" type="veh_passenger" depart="1730.97" departLane="best" from="374332365#1" to="374427267#2"/>
    <trip id="veh263" type="veh_passenger" depart="1737.58" departLane="best" departSpeed="max" from="291325260#0" to="-264484756"/>
    <trip id="veh264" type="veh_passenger" depart="1744.18" departLane="best" from="51268678#12" to="-51268695#7"/>
    <trip id="veh265" type="veh_passenger" depart="1750.79" departLane="best" from="-557563419#13" to="506389480#1"/>
    <trip id="veh266" type="veh_passenger" depart="1757.40" departLane="best" from="238710698#5" to="51268681#2"/>
    <trip id="veh268" type="veh_passenger" depart="1770.61" departLane="best" from="-103533006#5" to="51268713#1"/>
    <trip id="veh269" type="veh_passenger" depart="1777.22" departLane="best" from="-494997375" to="49710854#1"/>
    <trip id="veh271" type="veh_passenger" depart="1790.43" departLane="best" departSpeed="max" from="49184201#0" to="377740861#0"/>
    <trip id="veh272" type="veh_passenger" depart="1797.04" departLane="best" from="374332375#2" to="506359676#3"/>
    <trip id="veh273" type="veh_passenger" depart="1803.64" departLane="best" from="-49710859#2" to="-557563419#12"/>
    <trip id="veh274" type="veh_passenger" depart="1810.25" departLane="best" departSpeed="max" from="49184201#0" to="144500732#3"/>
    <trip id="veh275" type="veh_passenger" depart="1816.86" departLane="best" from="374332387#1" to="374332376#1"/>
    <trip id="veh276" type="veh_passenger" depart="1823.47" departLane="best" from="374332380#1" to="374332362#4"/>
    <trip id="veh277" type="veh_passenger" depart="1830.07" departLane="best" from="506359662#2" to="232361463#4"/>
    <trip id="veh279" type="veh_passenger" depart="1843.29" departLane="best" from="103534039#3" to="-51268650#1"/>