<?xml version="1.0" encoding="UTF-8"?>

<!-- generated on 11/19/20 12:14:29 by Eclipse SUMO netconvert Version 1.7.0
<configuration xmlns:xsi="http://www.w3.org/2001/XMLSchema-instance" xsi:noNamespaceSchemaLocation="http://sumo.dlr.de/xsd/netconvertConfiguration.xsd">

    <input>
        <type-files value="D:\SUMO\data\typemap\osmNetconvert.typ.xml"/>
        <osm-files value="osm_bbox.osm.xml"/>
    </input>

    <output>
        <output-file value="osm.net.xml"/>
        <output.street-names value="true"/>
        <output.original-names value="true"/>
    </output>

    <projection>
        <proj.utm value="true"/>
    </projection>

    <processing>
        <geometry.remove value="true"/>
        <roundabouts.guess value="true"/>
    </processing>

    <tls_building>
        <tls.discard-simple value="true"/>
        <tls.join value="true"/>
        <tls.guess-signals value="true"/>
        <tls.default-type value="actuated"/>
    </tls_building>

    <ramp_guessing>
        <ramps.guess value="true"/>
    </ramp_guessing>

    <junctions>
        <junctions.join value="true"/>
        <junctions.corner-detail value="5"/>
    </junctions>

    <report>
        <verbose value="true"/>
        <aggregate-warnings value="5"/>
    </report>

</configuration>
-->

<net version="1.6" junctionCornerDetail="5" limitTurnSpeed="5.50" xmlns:xsi="http://www.w3.org/2001/XMLSchema-instance" xsi:noNamespaceSchemaLocation="http://sumo.dlr.de/xsd/net_file.xsd">

    <location netOffset="-351888.89,-2771061.94" convBoundary="0.00,0.00,3871.70,1504.27" origBoundary="121.513905,25.048215,121.603288,25.068950" projParameter="+proj=utm +zone=51 +ellps=WGS84 +datum=WGS84 +units=m +no_defs"/>

    <type id="highway.bridleway" priority="1" numLanes="1" speed="2.78" allow="pedestrian" oneway="1" width="2.00"/>
    <type id="highway.bus_guideway" priority="1" numLanes="1" speed="27.78" allow="bus" oneway="1"/>
    <type id="highway.cycleway" priority="1" numLanes="1" speed="8.33" allow="bicycle" oneway="0" width="1.00"/>
    <type id="highway.footway" priority="1" numLanes="1" speed="2.78" allow="pedestrian" oneway="1" width="2.00"/>
    <type id="highway.ford" priority="1" numLanes="1" speed="2.78" allow="army" oneway="0"/>
    <type id="highway.living_street" priority="2" numLanes="1" speed="2.78" disallow="tram rail_urban rail rail_electric rail_fast ship" oneway="0"/>
    <type id="highway.motorway" priority="14" numLanes="2" speed="39.44" allow="private emergency authority army vip passenger hov taxi bus coach delivery truck trailer motorcycle evehicle custom1 custom2" oneway="1"/>
    <type id="highway.motorway_link" priority="9" numLanes="1" speed="22.22" allow="private emergency authority army vip passenger hov taxi bus coach delivery truck trailer motorcycle evehicle custom1 custom2" oneway="1"/>
    <type id="highway.path" priority="1" numLanes="1" speed="2.78" allow="pedestrian bicycle" oneway="1" width="2.00"/>
    <type id="highway.pedestrian" priority="1" numLanes="1" speed="2.78" allow="pedestrian" oneway="1" width="2.00"/>
    <type id="highway.primary" priority="12" numLanes="2" speed="27.78" disallow="tram rail_urban rail rail_electric rail_fast ship" oneway="0"/>
    <type id="highway.primary_link" priority="7" numLanes="1" speed="22.22" disallow="tram rail_urban rail rail_electric rail_fast ship" oneway="0"/>
    <type id="highway.raceway" priority="15" numLanes="2" speed="83.33" allow="vip" oneway="0"/>
    <type id="highway.residential" priority="3" numLanes="1" speed="13.89" disallow="tram rail_urban rail rail_electric rail_fast ship" oneway="0"/>
    <type id="highway.secondary" priority="11" numLanes="1" speed="27.78" disallow="tram rail_urban rail rail_electric rail_fast ship" oneway="0"/>
    <type id="highway.secondary_link" priority="6" numLanes="1" speed="22.22" disallow="tram rail_urban rail rail_electric rail_fast ship" oneway="0"/>
    <type id="highway.service" priority="1" numLanes="1" speed="5.56" allow="pedestrian delivery bicycle" oneway="0"/>
    <type id="highway.stairs" priority="1" numLanes="1" speed="1.39" allow="pedestrian" oneway="1" width="2.00"/>
    <type id="highway.step" priority="1" numLanes="1" speed="1.39" allow="pedestrian" oneway="1" width="2.00"/>
    <type id="highway.steps" priority="1" numLanes="1" speed="1.39" allow="pedestrian" oneway="1" width="2.00"/>
    <type id="highway.tertiary" priority="10" numLanes="1" speed="22.22" disallow="tram rail_urban rail rail_electric rail_fast ship" oneway="0"/>
    <type id="highway.tertiary_link" priority="5" numLanes="1" speed="22.22" disallow="tram rail_urban rail rail_electric rail_fast ship" oneway="0"/>
    <type id="highway.track" priority="1" numLanes="1" speed="5.56" allow="pedestrian motorcycle moped bicycle" oneway="0"/>
    <type id="highway.trunk" priority="13" numLanes="2" speed="27.78" disallow="pedestrian bicycle tram rail_urban rail rail_electric rail_fast ship" oneway="0"/>
    <type id="highway.trunk_link" priority="8" numLanes="1" speed="22.22" disallow="pedestrian bicycle tram rail_urban rail rail_electric rail_fast ship" oneway="0"/>
    <type id="highway.unclassified" priority="4" numLanes="1" speed="13.89" disallow="tram rail_urban rail rail_electric rail_fast ship" oneway="0"/>
    <type id="highway.unsurfaced" priority="1" numLanes="1" speed="8.33" disallow="tram rail_urban rail rail_electric rail_fast ship" oneway="0"/>
    <type id="railway.highspeed" priority="21" numLanes="1" speed="69.44" allow="rail_fast" oneway="1"/>
    <type id="railway.light_rail" priority="19" numLanes="1" speed="27.78" allow="rail_urban" oneway="1"/>
    <type id="railway.preserved" priority="16" numLanes="1" speed="27.78" allow="rail" oneway="1"/>
    <type id="railway.rail" priority="20" numLanes="1" speed="44.44" allow="rail" oneway="1"/>
    <type id="railway.subway" priority="18" numLanes="1" speed="27.78" allow="rail_urban" oneway="1"/>
    <type id="railway.tram" priority="17" numLanes="1" speed="13.89" allow="tram" oneway="1"/>

    <edge id=":1195376170_0" function="internal">
        <lane id=":1195376170_0_0" index="0" disallow="tram rail_urban rail rail_electric rail_fast ship" speed="10.33" length="3.94" shape="1919.30,1021.32 1918.52,1022.17 1918.05,1022.83 1917.74,1023.57 1917.39,1024.68"/>
    </edge>
    <edge id=":1195376170_1" function="internal">
        <lane id=":1195376170_1_0" index="0" disallow="tram rail_urban rail rail_electric rail_fast ship" speed="3.65" length="2.34" shape="1919.30,1021.32 1917.90,1021.63 1917.04,1021.36"/>
    </edge>
    <edge id=":1195376170_6" function="internal">
        <lane id=":1195376170_6_0" index="0" disallow="tram rail_urban rail rail_electric rail_fast ship" speed="3.65" length="2.34" shape="1917.04,1021.36 1916.74,1020.52 1917.00,1019.10"/>
    </edge>
    <edge id=":1195376170_2" function="internal">
        <lane id=":1195376170_2_0" index="0" allow="pedestrian delivery bicycle" speed="5.44" length="4.75" shape="1912.67,1019.74 1913.85,1020.19 1914.97,1020.24 1916.02,1019.87 1917.00,1019.10"/>
    </edge>
    <edge id=":1195376170_3" function="internal">
        <lane id=":1195376170_3_0" index="0" allow="pedestrian delivery bicycle" speed="6.34" length="7.22" shape="1912.67,1019.74 1914.97,1021.13 1916.52,1022.41 1917.33,1023.60 1917.39,1024.68"/>
    </edge>
    <edge id=":1195376170_4" function="internal">
        <lane id=":1195376170_4_0" index="0" disallow="tram rail_urban rail rail_electric rail_fast ship" speed="12.10" length="5.46" shape="1914.33,1023.76 1914.81,1022.22 1915.26,1021.19 1915.90,1020.28 1917.00,1019.10"/>
    </edge>
    <edge id=":1195376170_5" function="internal">
        <lane id=":1195376170_5_0" index="0" disallow="tram rail_urban rail rail_electric rail_fast ship" speed="3.65" length="2.34" shape="1914.33,1023.76 1915.44,1022.84 1916.32,1022.69"/>
    </edge>
    <edge id=":1195376170_7" function="internal">
        <lane id=":1195376170_7_0" index="0" disallow="tram rail_urban rail rail_electric rail_fast ship" speed="3.65" length="2.34" shape="1916.32,1022.69 1916.97,1023.30 1917.39,1024.68"/>
    </edge>
    <edge id=":1336183948_0" function="internal">
        <lane id=":1336183948_0_0" index="0" allow="pedestrian delivery bicycle" speed="5.10" length="5.11" shape="2814.01,243.34 2814.22,244.75 2814.81,245.76 2815.78,246.37 2817.14,246.56"/>
    </edge>
    <edge id=":1336183948_1" function="internal">
        <lane id=":1336183948_1_0" index="0" allow="pedestrian delivery bicycle" speed="3.65" length="4.67" shape="2814.01,243.34 2813.22,244.55 2812.43,244.96 2811.62,244.57 2810.81,243.38"/>
    </edge>
    <edge id=":1336183948_2" function="internal">
        <lane id=":1336183948_2_0" index="0" allow="pedestrian delivery bicycle" speed="5.00" length="5.04" shape="2807.69,246.47 2809.07,246.30 2810.05,245.73 2810.63,244.76 2810.81,243.38"/>
    </edge>
    <edge id=":1336183948_3" function="internal">
        <lane id=":1336183948_3_0" index="0" allow="pedestrian delivery bicycle" speed="5.56" length="9.45" shape="2807.69,246.47 2817.14,246.56"/>
    </edge>
    <edge id=":1336183949_0" function="internal">
        <lane id=":1336183949_0_0" index="0" allow="pedestrian delivery bicycle" speed="3.65" length="4.67" shape="2809.81,170.02 2810.60,168.81 2811.39,168.40 2812.20,168.79 2813.01,169.98"/>
    </edge>
    <edge id=":1681657460_0" function="internal">
        <lane id=":1681657460_0_0" index="0" allow="pedestrian delivery bicycle" speed="6.12" length="7.67" shape="1640.79,574.71 1642.09,575.12 1643.04,576.30 1643.63,578.26 1643.86,581.00"/>
    </edge>
    <edge id=":1681657460_1" function="internal">
        <lane id=":1681657460_1_0" index="0" allow="pedestrian delivery bicycle" speed="3.65" length="4.67" shape="1640.79,574.71 1641.98,575.53 1642.37,576.33 1641.96,577.13 1640.75,577.91"/>
    </edge>
    <edge id=":1966743231_0" function="internal">
        <lane id=":1966743231_0_0" index="0" disallow="tram rail_urban rail rail_electric rail_fast ship" speed="13.89" length="5.00" shape="1325.72,921.16 1325.62,916.16"/>
    </edge>
    <edge id=":1966743231_1" function="internal">
        <lane id=":1966743231_1_0" index="0" allow="pedestrian bicycle" speed="4.65" length="4.54" shape="1328.78,918.57 1327.42,918.46 1326.44,918.02 1325.84,917.25 1325.62,916.16"/>
    </edge>
    <edge id=":1966743236_0" function="internal">
        <lane id=":1966743236_0_0" index="0" allow="pedestrian bicycle" speed="4.17" length="4.54" width="2.00" shape="1417.89,935.42 1418.98,935.17 1419.73,934.55 1420.13,933.55 1420.20,932.18"/>
    </edge>
    <edge id=":1966743236_1" function="internal">
        <lane id=":1966743236_1_0" index="0" allow="pedestrian delivery bicycle" speed="5.56" length="4.97" shape="1417.89,935.42 1422.85,935.21"/>
    </edge>
    <edge id=":2512846964_0" function="internal">
        <lane id=":2512846964_0_0" index="0" disallow="tram rail_urban rail rail_electric rail_fast ship" speed="13.89" length="20.99" shape="1742.23,856.30 1741.85,835.31"/>
        <lane id=":2512846964_0_1" index="1" disallow="tram rail_urban rail rail_electric rail_fast ship" speed="13.89" length="20.99" shape="1745.43,856.25 1745.05,835.26"/>
    </edge>
    <edge id=":2512846964_2" function="internal">
        <lane id=":2512846964_2_0" index="0" disallow="tram rail_urban rail rail_electric rail_fast ship" speed="5.87" length="8.09" shape="1756.27,850.94 1754.29,851.00 1752.89,851.88 1752.07,853.59 1751.83,856.13"/>
    </edge>
    <edge id=":2512846964_3" function="internal">
        <lane id=":2512846964_3_0" index="0" disallow="tram rail_urban rail rail_electric rail_fast ship" speed="10.85" length="3.08" shape="1756.27,850.94 1753.32,850.08"/>
    </edge>
    <edge id=":2512846964_4" function="internal">
        <lane id=":2512846964_4_0" index="0" disallow="tram rail_urban rail rail_electric rail_fast ship" speed="9.78" length="3.65" shape="1756.76,847.77 1753.26,846.77"/>
    </edge>
    <edge id=":2512846964_5" function="internal">
        <lane id=":2512846964_5_0" index="0" disallow="tram rail_urban rail rail_electric rail_fast ship" speed="3.65" length="2.52" shape="1757.25,844.61 1756.19,843.64 1755.92,842.79 1756.02,842.63"/>
    </edge>
    <edge id=":2512846964_10" function="internal">
        <lane id=":2512846964_10_0" index="0" disallow="tram rail_urban rail rail_electric rail_fast ship" speed="10.85" length="20.35" shape="1753.32,850.08 1750.05,849.14 1745.58,845.93 1742.84,841.32 1741.85,835.31"/>
    </edge>
    <edge id=":2512846964_11" function="internal">
        <lane id=":2512846964_11_0" index="0" disallow="tram rail_urban rail rail_electric rail_fast ship" speed="9.78" length="15.24" shape="1753.26,846.77 1751.71,846.32 1748.07,843.75 1745.86,840.06 1745.05,835.26"/>
    </edge>
    <edge id=":2512846964_12" function="internal">
        <lane id=":2512846964_12_0" index="0" disallow="tram rail_urban rail rail_electric rail_fast ship" speed="3.65" length="2.15" shape="1756.02,842.63 1756.43,842.06 1757.74,841.45"/>
    </edge>
    <edge id=":2512846964_6" function="internal">
        <lane id=":2512846964_6_0" index="0" disallow="tram rail_urban rail rail_electric rail_fast ship" speed="7.20" length="9.81" shape="1751.45,835.14 1751.88,837.54 1753.07,839.39 1755.03,840.70 1757.74,841.45"/>
    </edge>
    <edge id=":2512846964_7" function="internal">
        <lane id=":2512846964_7_0" index="0" disallow="tram rail_urban rail rail_electric rail_fast ship" speed="12.50" length="20.99" shape="1751.45,835.14 1751.83,856.13"/>
        <lane id=":2512846964_7_1" index="1" disallow="tram rail_urban rail rail_electric rail_fast ship" speed="12.50" length="20.99" shape="1748.25,835.20 1748.63,856.19"/>
    </edge>
    <edge id=":2512846964_9" function="internal">
        <lane id=":2512846964_9_0" index="0" disallow="tram rail_urban rail rail_electric rail_fast ship" speed="3.65" length="4.67" shape="1748.25,835.20 1747.47,836.41 1746.68,836.83 1745.87,836.44 1745.05,835.26"/>
    </edge>
    <edge id=":2628346479_0" function="internal">
        <lane id=":2628346479_0_0" index="0" disallow="tram rail_urban rail rail_electric rail_fast ship" speed="6.53" length="9.01" shape="1650.47,638.56 1648.05,638.99 1646.33,640.09 1645.31,641.86 1645.01,644.30"/>
    </edge>
    <edge id=":2628346479_1" function="internal">
        <lane id=":2628346479_1_0" index="0" disallow="tram rail_urban rail rail_electric rail_fast ship" speed="13.89" length="11.13" shape="1650.47,638.56 1639.35,638.91"/>
    </edge>
    <edge id=":2628346479_2" function="internal">
        <lane id=":2628346479_2_0" index="0" disallow="tram rail_urban rail rail_electric rail_fast ship" speed="13.89" length="11.13" shape="1644.81,633.17 1645.01,644.30"/>
    </edge>
    <edge id=":2628346479_3" function="internal">
        <lane id=":2628346479_3_0" index="0" disallow="tram rail_urban rail rail_electric rail_fast ship" speed="6.53" length="4.26" shape="1644.81,633.17 1644.50,635.62 1643.62,637.17"/>
    </edge>
    <edge id=":2628346479_4" function="internal">
        <lane id=":2628346479_4_0" index="0" disallow="tram rail_urban rail rail_electric rail_fast ship" speed="6.53" length="4.75" shape="1643.62,637.17 1643.49,637.39 1641.77,638.49 1639.35,638.91"/>
    </edge>
    <edge id=":2628346481_0" function="internal">
        <lane id=":2628346481_0_0" index="0" disallow="tram rail_urban rail rail_electric rail_fast ship" speed="6.15" length="9.06" shape="2285.27,1097.45 2284.94,1099.98 2285.54,1101.86 2287.08,1103.10 2289.56,1103.69"/>
    </edge>
    <edge id=":2628346481_1" function="internal">
        <lane id=":2628346481_1_0" index="0" disallow="tram rail_urban rail rail_electric rail_fast ship" speed="22.22" length="11.26" shape="2278.35,1102.65 2289.56,1103.69"/>
    </edge>
    <edge id=":2664963619_0" function="internal">
        <lane id=":2664963619_0_0" index="0" allow="pedestrian delivery bicycle" speed="3.65" length="4.67" shape="2927.19,142.08 2927.99,140.89 2928.79,140.49 2929.59,140.89 2930.39,142.09"/>
    </edge>
    <edge id=":2713721930_0" function="internal">
        <lane id=":2713721930_0_0" index="0" disallow="tram rail_urban rail rail_electric rail_fast ship" speed="13.89" length="4.97" shape="1711.93,553.52 1711.84,548.53"/>
        <lane id=":2713721930_0_1" index="1" disallow="tram rail_urban rail rail_electric rail_fast ship" speed="13.89" length="4.97" shape="1715.13,553.45 1715.04,548.48"/>
        <lane id=":2713721930_0_2" index="2" disallow="tram rail_urban rail rail_electric rail_fast ship" speed="13.89" length="4.97" shape="1718.33,553.39 1718.24,548.44"/>
    </edge>
    <edge id=":2804449465_0" function="internal">
        <lane id=":2804449465_0_0" index="0" disallow="tram rail_urban rail rail_electric rail_fast ship" speed="27.78" length="5.09" shape="2693.78,375.04 2688.72,375.25"/>
        <lane id=":2804449465_0_1" index="1" disallow="tram rail_urban rail rail_electric rail_fast ship" speed="27.78" length="5.09" shape="2693.67,371.85 2688.57,372.05"/>
    </edge>
    <edge id=":2833214564_0" function="internal">
        <lane id=":2833214564_0_0" index="0" allow="pedestrian delivery bicycle" speed="5.04" length="4.99" shape="2774.01,994.24 2772.64,994.35 2771.64,994.87 2771.00,995.80 2770.71,997.13"/>
    </edge>
    <edge id=":2833214564_1" function="internal">
        <lane id=":2833214564_1_0" index="0" disallow="tram rail_urban rail rail_electric rail_fast ship" speed="13.89" length="9.38" shape="2774.01,994.24 2764.65,993.59"/>
    </edge>
    <edge id=":2833214564_2" function="internal">
        <lane id=":2833214564_2_0" index="0" disallow="tram rail_urban rail rail_electric rail_fast ship" speed="3.65" length="2.34" shape="2774.01,994.24 2772.86,993.37 2772.51,992.54"/>
    </edge>
    <edge id=":2833214564_9" function="internal">
        <lane id=":2833214564_9_0" index="0" disallow="tram rail_urban rail rail_electric rail_fast ship" speed="3.65" length="2.34" shape="2772.51,992.54 2772.96,991.77 2774.21,991.05"/>
    </edge>
    <edge id=":2833214564_3" function="internal">
        <lane id=":2833214564_3_0" index="0" disallow="tram rail_urban rail rail_electric rail_fast ship" speed="13.89" length="9.34" shape="2764.89,990.40 2774.21,991.05"/>
    </edge>
    <edge id=":2833214564_4" function="internal">
        <lane id=":2833214564_4_0" index="0" allow="pedestrian delivery bicycle" speed="6.87" length="5.06" shape="2764.89,990.40 2767.60,991.00 2769.47,992.32"/>
    </edge>
    <edge id=":2833214564_5" function="internal">
        <lane id=":2833214564_5_0" index="0" disallow="tram rail_urban rail rail_electric rail_fast ship" speed="3.65" length="2.34" shape="2764.89,990.40 2766.03,991.29 2766.37,992.12"/>
    </edge>
    <edge id=":2833214564_10" function="internal">
        <lane id=":2833214564_10_0" index="0" allow="pedestrian delivery bicycle" speed="6.87" length="5.07" shape="2769.47,992.32 2770.51,994.37 2770.71,997.13"/>
    </edge>
    <edge id=":2833214564_11" function="internal">
        <lane id=":2833214564_11_0" index="0" disallow="tram rail_urban rail rail_electric rail_fast ship" speed="3.65" length="2.34" shape="2766.37,992.12 2765.91,992.88 2764.65,993.59"/>
    </edge>
    <edge id=":2833214564_6" function="internal">
        <lane id=":2833214564_6_0" index="0" allow="pedestrian delivery bicycle" speed="5.06" length="5.00" shape="2767.52,996.92 2767.42,995.55 2766.91,994.54 2765.98,993.89 2764.65,993.59"/>
    </edge>
    <edge id=":2833214564_7" function="internal">
        <lane id=":2833214564_7_0" index="0" allow="pedestrian delivery bicycle" speed="6.87" length="10.14" shape="2767.52,996.92 2768.10,994.20 2769.40,992.32 2771.44,991.27 2774.21,991.05"/>
    </edge>
    <edge id=":2833214564_8" function="internal">
        <lane id=":2833214564_8_0" index="0" allow="pedestrian delivery bicycle" speed="3.65" length="4.67" shape="2767.52,996.92 2768.40,995.78 2769.22,995.43 2770.00,995.88 2770.71,997.13"/>
    </edge>
    <edge id=":2833214565_0" function="internal">
        <lane id=":2833214565_0_0" index="0" disallow="tram rail_urban rail rail_electric rail_fast ship" speed="13.89" length="9.40" shape="2769.18,1066.61 2759.80,1066.00"/>
    </edge>
    <edge id=":2833214565_1" function="internal">
        <lane id=":2833214565_1_0" index="0" allow="pedestrian delivery bicycle" speed="6.86" length="5.08" shape="2769.18,1066.61 2766.45,1066.04 2764.57,1064.73"/>
    </edge>
    <edge id=":2833214565_2" function="internal">
        <lane id=":2833214565_2_0" index="0" disallow="tram rail_urban rail rail_electric rail_fast ship" speed="3.65" length="2.34" shape="2769.18,1066.61 2768.04,1065.74 2767.69,1064.91"/>
    </edge>
    <edge id=":2833214565_9" function="internal">
        <lane id=":2833214565_9_0" index="0" allow="pedestrian delivery bicycle" speed="6.86" length="5.08" shape="2764.57,1064.73 2763.52,1062.69 2763.31,1059.91"/>
    </edge>
    <edge id=":2833214565_10" function="internal">
        <lane id=":2833214565_10_0" index="0" disallow="tram rail_urban rail rail_electric rail_fast ship" speed="3.65" length="2.34" shape="2767.69,1064.91 2768.14,1064.14 2769.39,1063.42"/>
    </edge>
    <edge id=":2833214565_3" function="internal">
        <lane id=":2833214565_3_0" index="0" allow="pedestrian delivery bicycle" speed="5.04" length="5.00" shape="2766.50,1060.12 2766.60,1061.49 2767.12,1062.49 2768.05,1063.14 2769.39,1063.42"/>
    </edge>
    <edge id=":2833214565_4" function="internal">
        <lane id=":2833214565_4_0" index="0" allow="pedestrian delivery bicycle" speed="6.87" length="10.16" shape="2766.50,1060.12 2765.93,1062.85 2764.62,1064.74 2762.58,1065.79 2759.80,1066.00"/>
    </edge>
    <edge id=":2833214565_5" function="internal">
        <lane id=":2833214565_5_0" index="0" allow="pedestrian delivery bicycle" speed="3.65" length="4.67" shape="2766.50,1060.12 2765.62,1061.27 2764.80,1061.61 2764.03,1061.16 2763.31,1059.91"/>
    </edge>
    <edge id=":2833214565_6" function="internal">
        <lane id=":2833214565_6_0" index="0" allow="pedestrian delivery bicycle" speed="5.05" length="5.01" shape="2760.01,1062.81 2761.38,1062.70 2762.38,1062.18 2763.02,1061.25 2763.31,1059.91"/>
    </edge>
    <edge id=":2833214565_7" function="internal">
        <lane id=":2833214565_7_0" index="0" disallow="tram rail_urban rail rail_electric rail_fast ship" speed="13.89" length="9.40" shape="2760.01,1062.81 2769.39,1063.42"/>
    </edge>
    <edge id=":2833214565_8" function="internal">
        <lane id=":2833214565_8_0" index="0" disallow="tram rail_urban rail rail_electric rail_fast ship" speed="3.65" length="2.34" shape="2760.01,1062.81 2761.16,1063.68 2761.50,1064.51"/>
    </edge>
    <edge id=":2833214565_11" function="internal">
        <lane id=":2833214565_11_0" index="0" disallow="tram rail_urban rail rail_electric rail_fast ship" speed="3.65" length="2.34" shape="2761.50,1064.51 2761.05,1065.28 2759.80,1066.00"/>
    </edge>
    <edge id=":2855764322_0" function="internal">
        <lane id=":2855764322_0_0" index="0" allow="pedestrian delivery bicycle" speed="3.65" length="4.67" shape="1885.78,524.99 1884.67,524.07 1884.35,523.24 1884.83,522.48 1886.10,521.81"/>
    </edge>
    <edge id=":2855764323_0" function="internal">
        <lane id=":2855764323_0_0" index="0" allow="pedestrian delivery bicycle" speed="5.02" length="5.02" shape="1959.67,496.58 1959.47,495.22 1958.87,494.25 1957.89,493.69 1956.52,493.53"/>
    </edge>
    <edge id=":2855764323_1" function="internal">
        <lane id=":2855764323_1_0" index="0" allow="pedestrian delivery bicycle" speed="5.56" length="9.40" shape="1959.67,496.58 1959.61,487.18"/>
    </edge>
    <edge id=":2855764323_2" function="internal">
        <lane id=":2855764323_2_0" index="0" allow="pedestrian delivery bicycle" speed="5.11" length="5.08" shape="1956.44,490.33 1957.83,490.10 1958.83,489.50 1959.42,488.53 1959.61,487.18"/>
    </edge>
    <edge id=":2855764323_3" function="internal">
        <lane id=":2855764323_3_0" index="0" allow="pedestrian delivery bicycle" speed="3.65" length="4.67" shape="1956.44,490.33 1957.66,491.10 1958.08,491.89 1957.70,492.70 1956.52,493.53"/>
    </edge>
    <edge id=":2855764324_0" function="internal">
        <lane id=":2855764324_0_0" index="0" allow="pedestrian delivery bicycle" speed="3.65" length="4.67" shape="1916.55,494.59 1915.33,493.82 1914.91,493.03 1915.29,492.22 1916.47,491.39"/>
    </edge>
    <edge id=":2896540667_0" function="internal">
        <lane id=":2896540667_0_0" index="0" disallow="tram rail_urban rail rail_electric rail_fast ship" speed="6.49" length="9.03" shape="2571.71,1053.75 2569.24,1053.95 2567.43,1054.88 2566.28,1056.56 2565.79,1058.99"/>
    </edge>
    <edge id=":2896540667_1" function="internal">
        <lane id=":2896540667_1_0" index="0" disallow="tram rail_urban rail rail_electric rail_fast ship" speed="8.02" length="14.20" shape="2571.71,1053.75 2567.90,1052.96 2565.25,1051.14 2563.76,1048.29 2563.43,1044.43"/>
    </edge>
    <edge id=":2896540667_2" function="internal">
        <lane id=":2896540667_2_0" index="0" disallow="tram rail_urban rail rail_electric rail_fast ship" speed="3.65" length="4.67" shape="2571.71,1053.75 2570.57,1052.88 2570.22,1052.05 2570.67,1051.28 2571.92,1050.56"/>
    </edge>
    <edge id=":2896540667_3" function="internal">
        <lane id=":2896540667_3_0" index="0" disallow="tram rail_urban rail rail_electric rail_fast ship" speed="6.53" length="9.07" shape="2566.63,1044.62 2566.84,1047.08 2567.79,1048.89 2569.48,1050.05 2571.92,1050.56"/>
    </edge>
    <edge id=":2896540667_4" function="internal">
        <lane id=":2896540667_4_0" index="0" disallow="tram rail_urban rail rail_electric rail_fast ship" speed="13.89" length="14.40" shape="2566.63,1044.62 2565.79,1058.99"/>
    </edge>
    <edge id=":2896540667_5" function="internal">
        <lane id=":2896540667_5_0" index="0" disallow="tram rail_urban rail rail_electric rail_fast ship" speed="3.65" length="2.34" shape="2566.63,1044.62 2565.76,1045.77 2564.94,1046.12"/>
    </edge>
    <edge id=":2896540667_9" function="internal">
        <lane id=":2896540667_9_0" index="0" disallow="tram rail_urban rail rail_electric rail_fast ship" speed="3.65" length="2.34" shape="2564.94,1046.12 2564.16,1045.67 2563.43,1044.43"/>
    </edge>
    <edge id=":2896540667_6" function="internal">
        <lane id=":2896540667_6_0" index="0" disallow="tram rail_urban rail rail_electric rail_fast ship" speed="13.89" length="14.40" shape="2562.59,1058.81 2563.43,1044.43"/>
    </edge>
    <edge id=":2896540667_7" function="internal">
        <lane id=":2896540667_7_0" index="0" disallow="tram rail_urban rail rail_electric rail_fast ship" speed="7.99" length="5.93" shape="2562.59,1058.81 2563.37,1054.98 2564.52,1053.31"/>
    </edge>
    <edge id=":2896540667_8" function="internal">
        <lane id=":2896540667_8_0" index="0" disallow="tram rail_urban rail rail_electric rail_fast ship" speed="3.65" length="2.34" shape="2562.59,1058.81 2563.46,1057.65 2564.28,1057.30"/>
    </edge>
    <edge id=":2896540667_10" function="internal">
        <lane id=":2896540667_10_0" index="0" disallow="tram rail_urban rail rail_electric rail_fast ship" speed="7.99" length="8.29" shape="2564.52,1053.31 2565.18,1052.34 2568.03,1050.86 2571.92,1050.56"/>
    </edge>
    <edge id=":2896540667_11" function="internal">
        <lane id=":2896540667_11_0" index="0" disallow="tram rail_urban rail rail_electric rail_fast ship" speed="3.65" length="2.34" shape="2564.28,1057.30 2565.06,1057.75 2565.79,1058.99"/>
    </edge>
    <edge id=":2896540675_0" function="internal">
        <lane id=":2896540675_0_0" index="0" disallow="tram rail_urban rail rail_electric rail_fast ship" speed="22.22" length="5.01" shape="2393.96,1037.69 2393.20,1042.64"/>
    </edge>
    <edge id=":2896540675_1" function="internal">
        <lane id=":2896540675_1_0" index="0" disallow="tram rail_urban rail rail_electric rail_fast ship" speed="3.65" length="2.34" shape="2393.96,1037.69 2392.99,1038.76 2392.13,1039.03"/>
    </edge>
    <edge id=":2896540675_4" function="internal">
        <lane id=":2896540675_4_0" index="0" disallow="tram rail_urban rail rail_electric rail_fast ship" speed="3.65" length="2.34" shape="2392.13,1039.03 2391.40,1038.51 2390.80,1037.20"/>
    </edge>
    <edge id=":2896540675_2" function="internal">
        <lane id=":2896540675_2_0" index="0" disallow="tram rail_urban rail rail_electric rail_fast ship" speed="22.22" length="5.01" shape="2390.03,1042.16 2390.80,1037.20"/>
    </edge>
    <edge id=":2896540675_3" function="internal">
        <lane id=":2896540675_3_0" index="0" disallow="tram rail_urban rail rail_electric rail_fast ship" speed="3.65" length="2.34" shape="2390.03,1042.16 2391.01,1041.09 2391.86,1040.82"/>
    </edge>
    <edge id=":2896540675_5" function="internal">
        <lane id=":2896540675_5_0" index="0" disallow="tram rail_urban rail rail_electric rail_fast ship" speed="3.65" length="2.34" shape="2391.86,1040.82 2392.59,1041.34 2393.20,1042.64"/>
    </edge>
    <edge id=":2896540676_0" function="internal">
        <lane id=":2896540676_0_0" index="0" disallow="tram rail_urban rail rail_electric rail_fast ship" speed="22.22" length="5.05" shape="2422.81,863.43 2422.37,868.46"/>
    </edge>
    <edge id=":2896540677_0" function="internal">
        <lane id=":2896540677_0_0" index="0" disallow="tram rail_urban rail rail_electric rail_fast ship" speed="13.89" length="5.07" shape="2494.92,870.44 2494.34,875.48"/>
    </edge>
    <edge id=":2896540678_0" function="internal">
        <lane id=":2896540678_0_0" index="0" disallow="tram rail_urban rail rail_electric rail_fast ship" speed="13.89" length="5.31" shape="2578.14,877.93 2577.46,883.20"/>
    </edge>
    <edge id=":2896540678_1" function="internal">